<?xml version="1.0"?>

<!-- generated on Mon Sep  9 09:55:06 2013 by SUMO duarouter Version 0.16.0
<?xml version="1.0" encoding="UTF-8"?>

<configuration xmlns:xsi="http://www.w3.org/2001/XMLSchema-instance" xsi:noNamespaceSchemaLocation="http://sumo.sf.net/xsd/duarouterConfiguration.xsd">

    <input>
        <net-file value="data/map.net.xml"/>
        <trip-files value="data/map.trips.xml"/>
    </input>

    <output>
        <output-file value="data/map.rou.xml"/>
    </output>

    <processing>
        <ignore-errors value="true"/>
        <repair value="true"/>
    </processing>

</configuration>
-->

<routes xmlns:xsi="http://www.w3.org/2001/XMLSchema-instance" xsi:noNamespaceSchemaLocation="http://sumo.sf.net/xsd/routes_file.xsd">
    <vehicle id="28" depart="28.00" color='1,0,0'>
        <route edges="31893967#0 31893967#1 -180814145#4 7395441"/>
    </vehicle>
    <vehicle id="32" depart="32.00">
        <route edges="180814145#2 180814145#3 180814145#4 180814145#5 7395443#0 7395443#1 19901338#0 -19898322 31893967#0 31893967#1"/>
    </vehicle>
</routes>
