<?xml version="1.0" encoding="UTF-8"?>

<!-- generated on Mon Sep  2 15:25:42 2013 by SUMO netconvert Version 0.16.0
<?xml version="1.0" encoding="UTF-8"?>

<configuration xmlns:xsi="http://www.w3.org/2001/XMLSchema-instance" xsi:noNamespaceSchemaLocation="http://sumo.sf.net/xsd/netconvertConfiguration.xsd">

    <input>
        <osm-files value="map.osm"/>
    </input>

    <output>
        <output-file value="map.net.xml"/>
    </output>

    <projection>
        <proj.utm value="true"/>
    </projection>

    <edge_removal>
        <remove-edges.by-vclass value="hov,taxi,bus,delivery,transport,lightrail,cityrail,pedestrian,rail_slow,rail_fast,motorcycle,bicycle"/>
    </edge_removal>

    <processing>
        <no-turnarounds value="true"/>
        <junctions.join value="true"/>
    </processing>

</configuration>
-->

<net version="0.13" xmlns:xsi="http://www.w3.org/2001/XMLSchema-instance" xsi:noNamespaceSchemaLocation="http://sumo.sf.net/xsd/net_file.xsd">

    <location netOffset="-641988.56,-5067672.00" convBoundary="0.00,0.00,7934.49,3259.59" origBoundary="4.825451,45.748022,4.927963,45.776573" projParameter="+proj=utm +zone=31 +ellps=WGS84 +datum=WGS84 +units=m +no_defs"/>

    <edge id=":110421994_0" function="internal">
        <lane id=":110421994_0_0" index="0" speed="8.33" length="5.75" shape="3809.49,2749.56 3803.79,2748.77"/>
    </edge>
    <edge id=":110421994_1" function="internal">
        <lane id=":110421994_1_0" index="0" speed="15.28" length="4.97" shape="3807.51,2742.72 3807.54,2744.09 3807.98,2745.14 3808.83,2745.88 3810.10,2746.31"/>
    </edge>
    <edge id=":110421994_2" function="internal">
        <lane id=":110421994_2_0" index="0" speed="15.28" length="7.78" shape="3807.51,2742.72 3807.00,2745.47 3806.21,2747.40 3805.14,2748.49 3803.79,2748.77"/>
    </edge>
    <edge id=":110421994_3" function="internal">
        <lane id=":110421994_3_0" index="0" speed="8.33" length="6.05" shape="3804.10,2745.48 3810.10,2746.31"/>
    </edge>
    <edge id=":110421999_0" function="internal">
        <lane id=":110421999_0_0" index="0" speed="13.89" length="5.08" shape="3841.32,2755.19 3839.91,2755.24 3838.89,2755.74 3838.25,2756.68 3837.99,2758.06"/>
    </edge>
    <edge id=":110421999_1" function="internal">
        <lane id=":110421999_1_0" index="0" speed="13.89" length="6.09" shape="3841.32,2755.19 3835.28,2754.34"/>
    </edge>
    <edge id=":110421999_2" function="internal">
        <lane id=":110421999_2_0" index="0" speed="13.89" length="5.84" shape="3835.89,2751.09 3841.67,2751.91"/>
    </edge>
    <edge id=":110421999_3" function="internal">
        <lane id=":110421999_3_0" index="0" speed="13.89" length="4.39" shape="3835.89,2751.09 3836.91,2751.69 3837.60,2753.05 3837.88,2754.71"/>
    </edge>
    <edge id=":110421999_4" function="internal">
        <lane id=":110421999_4_0" index="0" speed="13.89" length="3.36" shape="3837.88,2754.71 3837.96,2755.17 3837.99,2758.06"/>
    </edge>
    <edge id=":110422009_0" function="internal">
        <lane id=":110422009_0_0" index="0" speed="13.89" length="6.24" shape="3996.89,2747.53 3990.67,2748.10"/>
    </edge>
    <edge id=":110422009_1" function="internal">
        <lane id=":110422009_1_0" index="0" speed="13.89" length="6.29" shape="3990.35,2744.82 3996.61,2744.24"/>
    </edge>
    <edge id=":110422009_2" function="internal">
        <lane id=":110422009_2_0" index="0" speed="18.06" length="5.15" shape="3993.88,2751.09 3993.71,2749.66 3993.12,2748.69 3992.11,2748.17 3990.67,2748.10"/>
    </edge>
    <edge id=":110422009_3" function="internal">
        <lane id=":110422009_3_0" index="0" speed="18.06" length="3.33" shape="3993.88,2751.09 3994.11,2748.17 3994.21,2747.78"/>
    </edge>
    <edge id=":110422009_4" function="internal">
        <lane id=":110422009_4_0" index="0" speed="18.06" length="4.56" shape="3994.21,2747.78 3994.65,2746.06 3995.48,2744.75 3996.61,2744.24"/>
    </edge>
    <edge id=":110422013_0" function="internal">
        <lane id=":110422013_0_0" index="0" speed="18.06" length="5.28" shape="4116.21,2736.80 4114.98,2737.15 4114.05,2737.89 4113.43,2739.01 4113.13,2740.51"/>
    </edge>
    <edge id=":110422013_1" function="internal">
        <lane id=":110422013_1_0" index="0" speed="13.89" length="6.20" shape="4116.21,2736.80 4110.04,2737.40"/>
    </edge>
    <edge id=":110422013_2" function="internal">
        <lane id=":110422013_2_0" index="0" speed="13.89" length="6.10" shape="4109.76,2734.11 4115.83,2733.52"/>
    </edge>
    <edge id=":110422013_3" function="internal">
        <lane id=":110422013_3_0" index="0" speed="18.06" length="4.97" shape="4109.76,2734.11 4111.46,2734.39 4112.59,2735.54 4113.02,2737.11"/>
    </edge>
    <edge id=":110422013_4" function="internal">
        <lane id=":110422013_4_0" index="0" speed="18.06" length="3.42" shape="4113.02,2737.11 4113.14,2737.58 4113.13,2740.51"/>
    </edge>
    <edge id=":110422017_0" function="internal">
        <lane id=":110422017_0_0" index="0" speed="18.06" length="6.05" shape="4217.79,2726.82 4211.75,2727.25"/>
    </edge>
    <edge id=":110422017_1" function="internal">
        <lane id=":110422017_1_0" index="0" speed="22.22" length="4.75" shape="4217.79,2726.82 4216.33,2726.50 4215.28,2725.34 4214.76,2723.73"/>
    </edge>
    <edge id=":110422017_4" function="internal">
        <lane id=":110422017_4_0" index="0" speed="22.22" length="3.23" shape="4214.76,2723.73 4214.64,2723.35 4214.41,2720.53"/>
    </edge>
    <edge id=":110422017_2" function="internal">
        <lane id=":110422017_2_0" index="0" speed="18.06" length="5.07" shape="4211.47,2723.96 4212.76,2723.65 4213.69,2722.97 4214.23,2721.93 4214.41,2720.53"/>
    </edge>
    <edge id=":110422017_3" function="internal">
        <lane id=":110422017_3_0" index="0" speed="18.06" length="6.16" shape="4211.47,2723.96 4217.61,2723.53"/>
    </edge>
    <edge id=":110422026_0" function="internal">
        <lane id=":110422026_0_0" index="0" speed="13.89" length="6.07" shape="4158.94,2731.86 4152.90,2732.47"/>
    </edge>
    <edge id=":110422026_1" function="internal">
        <lane id=":110422026_1_0" index="0" speed="18.06" length="5.13" shape="4155.44,2725.58 4155.62,2726.99 4156.22,2727.96 4157.23,2728.49 4158.65,2728.57"/>
    </edge>
    <edge id=":110422026_2" function="internal">
        <lane id=":110422026_2_0" index="0" speed="18.06" length="7.82" shape="4155.44,2725.58 4155.24,2728.48 4154.75,2730.60 4153.97,2731.93 4152.90,2732.47"/>
    </edge>
    <edge id=":110422026_3" function="internal">
        <lane id=":110422026_3_0" index="0" speed="13.89" length="6.17" shape="4152.51,2729.19 4158.65,2728.57"/>
    </edge>
    <edge id=":110422035_0" function="internal">
        <lane id=":110422035_0_0" index="0" speed="18.06" length="5.20" shape="4300.66,2456.72 4300.36,2455.29 4299.68,2454.37 4298.61,2453.97 4297.15,2454.09"/>
    </edge>
    <edge id=":110422035_1" function="internal">
        <lane id=":110422035_1_0" index="0" speed="18.06" length="3.57" shape="4300.66,2456.72 4300.82,2453.71 4301.02,2453.19"/>
    </edge>
    <edge id=":110422035_6" function="internal">
        <lane id=":110422035_6_0" index="0" speed="18.06" length="6.83" shape="4301.02,2453.19 4301.71,2451.37 4303.34,2449.71 4305.69,2448.71"/>
    </edge>
    <edge id=":110422035_2" function="internal">
        <lane id=":110422035_2_0" index="0" speed="18.06" length="5.74" shape="4306.47,2451.92 4305.28,2452.46 4304.46,2453.40 4304.02,2454.75 4303.95,2456.51"/>
    </edge>
    <edge id=":110422035_3" function="internal">
        <lane id=":110422035_3_0" index="0" speed="13.89" length="9.57" shape="4306.47,2451.92 4297.15,2454.09"/>
    </edge>
    <edge id=":110422035_4" function="internal">
        <lane id=":110422035_4_0" index="0" speed="13.89" length="9.51" shape="4296.43,2450.87 4305.69,2448.71"/>
    </edge>
    <edge id=":110422035_5" function="internal">
        <lane id=":110422035_5_0" index="0" speed="18.06" length="7.19" shape="4296.43,2450.87 4299.55,2450.62 4301.85,2451.48 4302.81,2452.77"/>
    </edge>
    <edge id=":110422035_7" function="internal">
        <lane id=":110422035_7_0" index="0" speed="18.06" length="3.97" shape="4302.81,2452.77 4303.31,2453.45 4303.95,2456.51"/>
    </edge>
    <edge id=":110422048_0" function="internal">
        <lane id=":110422048_0_0" index="0" speed="22.22" length="9.50" shape="4326.73,2717.44 4317.29,2718.41"/>
    </edge>
    <edge id=":110422048_1" function="internal">
        <lane id=":110422048_1_0" index="0" speed="22.22" length="7.14" shape="4326.73,2717.44 4323.89,2717.33 4321.77,2716.33 4320.61,2714.75"/>
    </edge>
    <edge id=":110422048_6" function="internal">
        <lane id=":110422048_6_0" index="0" speed="22.22" length="3.23" shape="4320.61,2714.75 4320.38,2714.45 4319.72,2711.68"/>
    </edge>
    <edge id=":110422048_2" function="internal">
        <lane id=":110422048_2_0" index="0" speed="22.22" length="5.01" shape="4323.01,2711.37 4323.33,2712.71 4324.00,2713.62 4325.02,2714.10 4326.40,2714.15"/>
    </edge>
    <edge id=":110422048_3" function="internal">
        <lane id=":110422048_3_0" index="0" speed="22.22" length="10.32" shape="4323.01,2711.37 4322.87,2714.21 4321.87,2716.33 4320.01,2717.73 4317.29,2718.41"/>
    </edge>
    <edge id=":110422048_4" function="internal">
        <lane id=":110422048_4_0" index="0" speed="22.22" length="5.04" shape="4316.95,2715.13 4318.27,2714.80 4319.17,2714.11 4319.66,2713.07 4319.72,2711.68"/>
    </edge>
    <edge id=":110422048_5" function="internal">
        <lane id=":110422048_5_0" index="0" speed="22.22" length="9.50" shape="4316.95,2715.13 4326.40,2714.15"/>
    </edge>
    <edge id=":1242371158_0" function="internal">
        <lane id=":1242371158_0_0" index="0" speed="13.89" length="5.19" shape="4869.33,2318.25 4868.99,2316.84 4868.28,2315.95 4867.20,2315.57 4865.76,2315.71"/>
    </edge>
    <edge id=":1242371158_1" function="internal">
        <lane id=":1242371158_1_0" index="0" speed="13.89" length="3.52" shape="4869.33,2318.25 4869.40,2315.26 4869.58,2314.76"/>
    </edge>
    <edge id=":1242371158_6" function="internal">
        <lane id=":1242371158_6_0" index="0" speed="13.89" length="6.88" shape="4869.58,2314.76 4870.24,2312.92 4871.86,2311.24 4874.23,2310.21"/>
    </edge>
    <edge id=":1242371158_2" function="internal">
        <lane id=":1242371158_2_0" index="0" speed="13.89" length="5.66" shape="4875.04,2313.41 4873.84,2313.96 4873.04,2314.90 4872.63,2316.23 4872.61,2317.95"/>
    </edge>
    <edge id=":1242371158_3" function="internal">
        <lane id=":1242371158_3_0" index="0" speed="13.89" length="9.56" shape="4875.04,2313.41 4865.76,2315.71"/>
    </edge>
    <edge id=":1242371158_4" function="internal">
        <lane id=":1242371158_4_0" index="0" speed="13.89" length="9.54" shape="4864.97,2312.51 4874.23,2310.21"/>
    </edge>
    <edge id=":1242371158_5" function="internal">
        <lane id=":1242371158_5_0" index="0" speed="13.89" length="7.21" shape="4864.97,2312.51 4868.07,2312.21 4870.37,2313.01 4871.40,2314.31"/>
    </edge>
    <edge id=":1242371158_7" function="internal">
        <lane id=":1242371158_7_0" index="0" speed="13.89" length="3.89" shape="4871.40,2314.31 4871.89,2314.93 4872.61,2317.95"/>
    </edge>
    <edge id=":1242371194_0" function="internal">
        <lane id=":1242371194_0_0" index="0" speed="18.06" length="12.27" shape="4891.34,2519.58 4891.17,2523.12 4889.88,2525.35 4887.46,2526.27 4883.92,2525.87"/>
    </edge>
    <edge id=":1242371194_1" function="internal">
        <lane id=":1242371194_1_0" index="0" speed="18.06" length="8.97" shape="4891.34,2519.58 4891.10,2521.61 4889.92,2522.81 4887.80,2523.16 4884.75,2522.67"/>
    </edge>
    <edge id=":1291421565_0" function="internal">
        <lane id=":1291421565_0_0" index="0" speed="18.06" length="5.00" shape="4105.55,2225.23 4106.92,2225.12 4107.92,2224.59 4108.56,2223.66 4108.83,2222.32"/>
    </edge>
    <edge id=":1291421565_1" function="internal">
        <lane id=":1291421565_1_0" index="0" speed="13.89" length="6.21" shape="4108.45,2228.52 4108.83,2222.32"/>
    </edge>
    <edge id=":1291421577_0" function="internal">
        <lane id=":1291421577_0_0" index="0" speed="18.06" length="4.99" shape="4043.45,2218.48 4043.57,2219.84 4044.10,2220.84 4045.03,2221.47 4046.37,2221.74"/>
    </edge>
    <edge id=":1291421577_1" function="internal">
        <lane id=":1291421577_1_0" index="0" speed="13.89" length="6.18" shape="4043.45,2218.48 4043.10,2224.65"/>
    </edge>
    <edge id=":1291421577_2" function="internal">
        <lane id=":1291421577_2_0" index="0" speed="13.89" length="6.15" shape="4039.81,2224.44 4040.15,2218.30"/>
    </edge>
    <edge id=":1291421577_3" function="internal">
        <lane id=":1291421577_3_0" index="0" speed="18.06" length="4.70" shape="4039.81,2224.44 4040.29,2223.12 4041.55,2222.23 4043.26,2221.84"/>
    </edge>
    <edge id=":1291421577_4" function="internal">
        <lane id=":1291421577_4_0" index="0" speed="18.06" length="3.12" shape="4043.26,2221.84 4043.57,2221.77 4046.37,2221.74"/>
    </edge>
    <edge id=":1348038404_0" function="internal">
        <lane id=":1348038404_0_0" index="0" speed="13.89" length="0.10" shape="3511.11,2651.27 3511.10,2651.27"/>
    </edge>
    <edge id=":1348038406_0" function="internal">
        <lane id=":1348038406_0_0" index="0" speed="13.89" length="1.20" shape="3544.20,2640.07 3545.11,2639.29"/>
    </edge>
    <edge id=":1348038408_0" function="internal">
        <lane id=":1348038408_0_0" index="0" speed="13.89" length="0.50" shape="3547.13,2635.39 3547.29,2634.91"/>
    </edge>
    <edge id=":1348038412_0" function="internal">
        <lane id=":1348038412_0_0" index="0" speed="13.89" length="0.18" shape="3548.32,2628.63 3548.35,2628.45"/>
    </edge>
    <edge id=":1365166562_0" function="internal">
        <lane id=":1365166562_0_0" index="0" speed="13.89" length="0.10" shape="4211.94,2266.80 4211.94,2266.82"/>
    </edge>
    <edge id=":1365166562_1" function="internal">
        <lane id=":1365166562_1_0" index="0" speed="13.89" length="0.10" shape="4208.65,2266.61 4208.65,2266.63"/>
    </edge>
    <edge id=":1365166569_0" function="internal">
        <lane id=":1365166569_0_0" index="0" speed="13.89" length="0.10" shape="4258.04,2462.89 4258.02,2462.90"/>
    </edge>
    <edge id=":1365166569_1" function="internal">
        <lane id=":1365166569_1_0" index="0" speed="13.89" length="0.10" shape="4257.35,2459.67 4257.32,2459.67"/>
    </edge>
    <edge id=":1384133080_0" function="internal">
        <lane id=":1384133080_0_0" index="0" speed="18.06" length="0.26" shape="4146.87,2456.20 4146.71,2456.41"/>
    </edge>
    <edge id=":1384133080_1" function="internal">
        <lane id=":1384133080_1_0" index="0" speed="18.06" length="0.50" shape="4143.92,2456.37 4143.57,2456.02"/>
    </edge>
    <edge id=":1384133080_2" function="internal">
        <lane id=":1384133080_2_0" index="0" speed="22.22" length="1.92" shape="4143.92,2456.37 4144.63,2455.45 4145.33,2455.15"/>
    </edge>
    <edge id=":1384133080_3" function="internal">
        <lane id=":1384133080_3_0" index="0" speed="22.22" length="1.92" shape="4145.33,2455.15 4146.02,2455.47 4146.71,2456.41"/>
    </edge>
    <edge id=":1421722972_0" function="internal">
        <lane id=":1421722972_0_0" index="0" speed="13.89" length="0.10" shape="3880.60,2503.42 3880.60,2503.42"/>
    </edge>
    <edge id=":1421722973_0" function="internal">
        <lane id=":1421722973_0_0" index="0" speed="22.22" length="0.10" shape="3848.38,2479.42 3848.38,2479.42"/>
    </edge>
    <edge id=":1421797424_0" function="internal">
        <lane id=":1421797424_0_0" index="0" speed="13.89" length="0.10" shape="4136.89,2016.55 4136.89,2016.55"/>
    </edge>
    <edge id=":1421966722_0" function="internal">
        <lane id=":1421966722_0_0" index="0" speed="22.22" length="0.10" shape="3726.86,2086.05 3726.87,2086.00"/>
    </edge>
    <edge id=":1421966722_1" function="internal">
        <lane id=":1421966722_1_0" index="0" speed="22.22" length="0.10" shape="3723.57,2085.81 3723.57,2085.79"/>
    </edge>
    <edge id=":1421966743_0" function="internal">
        <lane id=":1421966743_0_0" index="0" speed="18.06" length="5.10" shape="3793.48,2497.55 3793.53,2498.97 3794.03,2499.99 3794.97,2500.62 3796.37,2500.86"/>
    </edge>
    <edge id=":1421966743_1" function="internal">
        <lane id=":1421966743_1_0" index="0" speed="18.06" length="5.21" shape="3786.74,2500.15 3788.12,2500.11 3789.15,2499.60 3789.85,2498.63 3790.20,2497.19"/>
    </edge>
    <edge id=":1421966743_2" function="internal">
        <lane id=":1421966743_2_0" index="0" speed="13.89" length="9.65" shape="3786.74,2500.15 3796.37,2500.86"/>
    </edge>
    <edge id=":1421966767_0" function="internal">
        <lane id=":1421966767_0_0" index="0" speed="22.22" length="0.10" shape="3881.83,2100.01 3881.83,2100.01"/>
    </edge>
    <edge id=":1421966792_0" function="internal">
        <lane id=":1421966792_0_0" index="0" speed="22.22" length="5.10" shape="3823.85,2249.33 3822.44,2249.27 3821.38,2249.68 3820.68,2250.57 3820.33,2251.94"/>
    </edge>
    <edge id=":1421966792_1" function="internal">
        <lane id=":1421966792_1_0" index="0" speed="22.22" length="9.52" shape="3823.85,2249.33 3814.50,2247.55"/>
    </edge>
    <edge id=":1421966792_2" function="internal">
        <lane id=":1421966792_2_0" index="0" speed="22.22" length="5.33" shape="3817.05,2251.58 3817.03,2250.03 3816.60,2248.84 3815.76,2248.01 3814.50,2247.55"/>
    </edge>
    <edge id=":1421966821_0" function="internal">
        <lane id=":1421966821_0_0" index="0" speed="22.22" length="0.10" shape="3882.69,2090.73 3882.69,2090.70"/>
    </edge>
    <edge id=":1422004804_0" function="internal">
        <lane id=":1422004804_0_0" index="0" speed="13.89" length="2.09" shape="3957.29,2507.37 3957.84,2507.47 3958.26,2507.71 3958.57,2508.09 3958.77,2508.61"/>
    </edge>
    <edge id=":1422033320_0" function="internal">
        <lane id=":1422033320_0_0" index="0" speed="13.89" length="6.04" shape="3966.25,2527.79 3960.36,2529.14"/>
    </edge>
    <edge id=":1422033320_1" function="internal">
        <lane id=":1422033320_1_0" index="0" speed="13.89" length="4.98" shape="3961.87,2522.20 3962.36,2523.47 3963.14,2524.29 3964.20,2524.65 3965.56,2524.56"/>
    </edge>
    <edge id=":1422033320_2" function="internal">
        <lane id=":1422033320_2_0" index="0" speed="13.89" length="3.15" shape="3961.87,2522.20 3962.31,2524.97 3962.29,2525.31"/>
    </edge>
    <edge id=":1422033320_4" function="internal">
        <lane id=":1422033320_4_0" index="0" speed="13.89" length="4.65" shape="3962.29,2525.31 3962.20,2527.04 3961.55,2528.44 3960.36,2529.14"/>
    </edge>
    <edge id=":1422033320_3" function="internal">
        <lane id=":1422033320_3_0" index="0" speed="13.89" length="6.15" shape="3959.57,2525.94 3965.56,2524.56"/>
    </edge>
    <edge id=":1422033339_0" function="internal">
        <lane id=":1422033339_0_0" index="0" speed="13.89" length="0.10" shape="3913.58,2755.65 3913.58,2755.65"/>
    </edge>
    <edge id=":1422033339_1" function="internal">
        <lane id=":1422033339_1_0" index="0" speed="13.89" length="0.10" shape="3913.32,2752.36 3913.28,2752.37"/>
    </edge>
    <edge id=":1422083116_0" function="internal">
        <lane id=":1422083116_0_0" index="0" speed="13.89" length="0.10" shape="4311.13,2287.98 4311.13,2287.98"/>
    </edge>
    <edge id=":1422083118_0" function="internal">
        <lane id=":1422083118_0_0" index="0" speed="13.89" length="0.10" shape="4414.71,2293.70 4414.71,2293.71"/>
    </edge>
    <edge id=":1423304176_0" function="internal">
        <lane id=":1423304176_0_0" index="0" speed="22.22" length="0.10" shape="3691.26,2761.67 3691.26,2761.67"/>
    </edge>
    <edge id=":1423304178_0" function="internal">
        <lane id=":1423304178_0_0" index="0" speed="13.89" length="0.10" shape="3665.71,2737.86 3665.61,2737.86"/>
    </edge>
    <edge id=":1423304178_1" function="internal">
        <lane id=":1423304178_1_0" index="0" speed="13.89" length="0.10" shape="3665.80,2734.57 3665.71,2734.56"/>
    </edge>
    <edge id=":1423343067_0" function="internal">
        <lane id=":1423343067_0_0" index="0" speed="22.22" length="0.10" shape="4245.89,2824.87 4245.89,2824.87"/>
    </edge>
    <edge id=":1423343068_0" function="internal">
        <lane id=":1423343068_0_0" index="0" speed="22.22" length="0.10" shape="4105.54,2823.88 4105.54,2823.87"/>
    </edge>
    <edge id=":1423350682_0" function="internal">
        <lane id=":1423350682_0_0" index="0" speed="13.89" length="0.10" shape="4348.20,2441.83 4348.24,2441.82"/>
    </edge>
    <edge id=":1423350682_1" function="internal">
        <lane id=":1423350682_1_0" index="0" speed="13.89" length="0.10" shape="4347.48,2438.61 4347.49,2438.61"/>
    </edge>
    <edge id=":1423350688_0" function="internal">
        <lane id=":1423350688_0_0" index="0" speed="22.22" length="0.10" shape="4347.90,2392.09 4347.91,2392.10"/>
    </edge>
    <edge id=":1423371859_0" function="internal">
        <lane id=":1423371859_0_0" index="0" speed="22.22" length="0.10" shape="3984.17,2284.89 3984.17,2284.89"/>
    </edge>
    <edge id=":1423371869_0" function="internal">
        <lane id=":1423371869_0_0" index="0" speed="13.89" length="0.10" shape="4032.61,2396.04 4032.61,2396.04"/>
    </edge>
    <edge id=":1423371869_1" function="internal">
        <lane id=":1423371869_1_0" index="0" speed="13.89" length="0.10" shape="4029.31,2395.85 4029.31,2395.85"/>
    </edge>
    <edge id=":1423371875_0" function="internal">
        <lane id=":1423371875_0_0" index="0" speed="22.22" length="0.10" shape="4048.60,2304.69 4048.60,2304.69"/>
    </edge>
    <edge id=":1423371879_0" function="internal">
        <lane id=":1423371879_0_0" index="0" speed="13.89" length="0.10" shape="4098.74,2399.46 4098.74,2399.46"/>
    </edge>
    <edge id=":1423371917_0" function="internal">
        <lane id=":1423371917_0_0" index="0" speed="22.22" length="0.10" shape="4093.55,2317.69 4093.55,2317.69"/>
    </edge>
    <edge id=":1423371919_0" function="internal">
        <lane id=":1423371919_0_0" index="0" speed="13.89" length="0.10" shape="4032.00,2406.41 4032.00,2406.41"/>
    </edge>
    <edge id=":1423371919_1" function="internal">
        <lane id=":1423371919_1_0" index="0" speed="13.89" length="0.10" shape="4028.70,2406.22 4028.70,2406.22"/>
    </edge>
    <edge id=":1423371920_0" function="internal">
        <lane id=":1423371920_0_0" index="0" speed="13.89" length="0.10" shape="4098.36,2409.58 4098.36,2409.59"/>
    </edge>
    <edge id=":1423371933_0" function="internal">
        <lane id=":1423371933_0_0" index="0" speed="13.89" length="0.10" shape="4100.41,2362.73 4100.41,2362.73"/>
    </edge>
    <edge id=":1423419182_0" function="internal">
        <lane id=":1423419182_0_0" index="0" speed="22.22" length="0.92" shape="4528.42,2347.52 4528.63,2348.42"/>
    </edge>
    <edge id=":1423419182_1" function="internal">
        <lane id=":1423419182_1_0" index="0" speed="22.22" length="2.01" shape="4525.12,2347.33 4525.24,2345.33"/>
    </edge>
    <edge id=":1423419182_2" function="internal">
        <lane id=":1423419182_2_0" index="0" speed="22.22" length="3.21" shape="4525.12,2347.33 4525.44,2345.72 4526.13,2345.36 4526.72,2345.86"/>
    </edge>
    <edge id=":1423419182_3" function="internal">
        <lane id=":1423419182_3_0" index="0" speed="22.22" length="3.21" shape="4526.72,2345.86 4527.19,2346.26 4528.63,2348.42"/>
    </edge>
    <edge id=":1423426953_0" function="internal">
        <lane id=":1423426953_0_0" index="0" speed="27.78" length="0.10" shape="4012.33,1908.52 4012.33,1908.52"/>
    </edge>
    <edge id=":1423426953_1" function="internal">
        <lane id=":1423426953_1_0" index="0" speed="27.78" length="0.10" shape="4011.51,1911.72 4011.51,1911.72"/>
    </edge>
    <edge id=":1423426965_0" function="internal">
        <lane id=":1423426965_0_0" index="0" speed="27.78" length="0.10" shape="3973.13,1752.76 3973.13,1752.76"/>
    </edge>
    <edge id=":1423426965_1" function="internal">
        <lane id=":1423426965_1_0" index="0" speed="27.78" length="0.10" shape="3974.22,1755.87 3974.21,1755.88"/>
    </edge>
    <edge id=":1423439485_0" function="internal">
        <lane id=":1423439485_0_0" index="0" speed="13.89" length="1.67" shape="4085.49,1688.13 4083.88,1687.70"/>
    </edge>
    <edge id=":1423439485_1" function="internal">
        <lane id=":1423439485_1_0" index="0" speed="13.89" length="0.81" shape="4082.16,1687.25 4082.50,1686.52"/>
    </edge>
    <edge id=":1427335428_0" function="internal">
        <lane id=":1427335428_0_0" index="0" speed="13.89" length="0.10" shape="4117.51,2023.58 4117.51,2023.58"/>
    </edge>
    <edge id=":1428908310_0" function="internal">
        <lane id=":1428908310_0_0" index="0" speed="27.78" length="1.40" shape="3068.74,2600.86 3067.35,2600.72"/>
    </edge>
    <edge id=":1428908310_1" function="internal">
        <lane id=":1428908310_1_0" index="0" speed="27.78" length="1.00" shape="3068.88,2597.57 3067.89,2597.46"/>
    </edge>
    <edge id=":1428908310_2" function="internal">
        <lane id=":1428908310_2_0" index="0" speed="27.78" length="0.19" shape="3068.97,2590.95 3069.16,2590.97"/>
    </edge>
    <edge id=":1428908310_3" function="internal">
        <lane id=":1428908310_3_0" index="0" speed="27.78" length="0.60" shape="3068.43,2594.21 3069.02,2594.27"/>
    </edge>
    <edge id=":1430501611_0" function="internal">
        <lane id=":1430501611_0_0" index="0" speed="13.89" length="0.10" shape="4305.57,2200.58 4305.57,2200.58"/>
    </edge>
    <edge id=":1433939650_0" function="internal">
        <lane id=":1433939650_0_0" index="0" speed="11.11" length="0.10" shape="3784.45,2746.95 3784.45,2746.95"/>
    </edge>
    <edge id=":1433939650_1" function="internal">
        <lane id=":1433939650_1_0" index="0" speed="11.11" length="0.10" shape="3784.76,2743.66 3784.76,2743.66"/>
    </edge>
    <edge id=":1433939682_0" function="internal">
        <lane id=":1433939682_0_0" index="0" speed="11.11" length="0.10" shape="3785.33,2499.98 3785.33,2499.98"/>
    </edge>
    <edge id=":1433939683_0" function="internal">
        <lane id=":1433939683_0_0" index="0" speed="18.06" length="5.43" shape="3399.81,2682.15 3400.01,2683.70 3400.66,2684.65 3401.75,2685.01 3403.30,2684.76"/>
    </edge>
    <edge id=":1433939683_1" function="internal">
        <lane id=":1433939683_1_0" index="0" speed="22.22" length="6.36" shape="3399.81,2682.15 3399.71,2688.51"/>
    </edge>
    <edge id=":1433939683_2" function="internal">
        <lane id=":1433939683_2_0" index="0" speed="22.22" length="6.35" shape="3396.41,2688.45 3396.52,2682.10"/>
    </edge>
    <edge id=":1433939683_3" function="internal">
        <lane id=":1433939683_3_0" index="0" speed="18.06" length="4.25" shape="3396.41,2688.45 3396.85,2687.63 3398.14,2686.74 3399.75,2686.03"/>
    </edge>
    <edge id=":1433939683_4" function="internal">
        <lane id=":1433939683_4_0" index="0" speed="18.06" length="3.77" shape="3399.75,2686.03 3400.29,2685.79 3403.30,2684.76"/>
    </edge>
    <edge id=":1433939691_0" function="internal">
        <lane id=":1433939691_0_0" index="0" speed="11.11" length="0.27" shape="3708.06,2496.93 3708.33,2496.92"/>
    </edge>
    <edge id=":1433939692_0" function="internal">
        <lane id=":1433939692_0_0" index="0" speed="11.11" length="0.10" shape="3825.09,2752.45 3825.09,2752.45"/>
    </edge>
    <edge id=":1433939692_1" function="internal">
        <lane id=":1433939692_1_0" index="0" speed="11.11" length="0.10" shape="3825.69,2749.21 3825.69,2749.21"/>
    </edge>
    <edge id=":1433944469_0" function="internal">
        <lane id=":1433944469_0_0" index="0" speed="22.22" length="0.10" shape="4258.34,2365.73 4258.34,2365.73"/>
    </edge>
    <edge id=":1433944470_0" function="internal">
        <lane id=":1433944470_0_0" index="0" speed="13.89" length="0.10" shape="3203.68,2502.59 3203.68,2502.59"/>
    </edge>
    <edge id=":1433944471_0" function="internal">
        <lane id=":1433944471_0_0" index="0" speed="13.89" length="0.10" shape="4408.58,2405.61 4408.58,2405.60"/>
    </edge>
    <edge id=":1438132817_0" function="internal">
        <lane id=":1438132817_0_0" index="0" speed="13.89" length="0.10" shape="4807.40,2329.98 4807.40,2329.98"/>
    </edge>
    <edge id=":1438132817_1" function="internal">
        <lane id=":1438132817_1_0" index="0" speed="13.89" length="0.10" shape="4806.63,2326.77 4806.62,2326.77"/>
    </edge>
    <edge id=":1438132871_0" function="internal">
        <lane id=":1438132871_0_0" index="0" speed="22.22" length="0.10" shape="4834.08,2513.03 4834.08,2513.03"/>
    </edge>
    <edge id=":1438132871_1" function="internal">
        <lane id=":1438132871_1_0" index="0" speed="22.22" length="0.10" shape="4834.91,2509.84 4834.91,2509.84"/>
    </edge>
    <edge id=":1439751395_0" function="internal">
        <lane id=":1439751395_0_0" index="0" speed="13.89" length="5.05" shape="4056.07,2014.75 4054.69,2014.92 4053.69,2015.48 4053.07,2016.44 4052.84,2017.79"/>
    </edge>
    <edge id=":1439751395_1" function="internal">
        <lane id=":1439751395_1_0" index="0" speed="13.89" length="9.54" shape="4056.07,2014.75 4046.54,2014.45"/>
    </edge>
    <edge id=":1439751395_2" function="internal">
        <lane id=":1439751395_2_0" index="0" speed="13.89" length="3.12" shape="4056.07,2014.75 4053.26,2014.49 4052.98,2014.40"/>
    </edge>
    <edge id=":1439751395_7" function="internal">
        <lane id=":1439751395_7_0" index="0" speed="13.89" length="4.83" shape="4052.98,2014.40 4051.27,2013.84 4050.12,2012.79 4049.80,2011.35"/>
    </edge>
    <edge id=":1439751395_3" function="internal">