<?xml version="1.0" encoding="UTF-8"?>

<!-- generated on Sun May 28 11:34:54 2017 by SUMO polyconvert Version 0.28.0
<?xml version="1.0" encoding="UTF-8"?>

<configuration xmlns:xsi="http://www.w3.org/2001/XMLSchema-instance" xsi:noNamespaceSchemaLocation="http://sumo.dlr.de/xsd/polyconvertConfiguration.xsd">

    <input>
        <net-file value="new-york.net.xml"/>
        <osm-files value="new-york.osm"/>
        <type-file value="typemap.xml"/>
    </input>

    <output>
        <output-file value="new-york.poly.xml"/>
    </output>

    <processing>
        <poi-layer-offset value="5"/>
    </processing>

</configuration>
-->

<additional xmlns:xsi="http://www.w3.org/2001/XMLSchema-instance" xsi:noNamespaceSchemaLocation="http://sumo.dlr.de/xsd/additional_file.xsd">
    <location netOffset="-581679.06,-4507506.70" convBoundary="0.00,-65.45,5110.80,5425.50" origBoundary="-74.032723,40.710904,-73.972272,40.762901" projParameter="+proj=utm +zone=18 +ellps=WGS84 +datum=WGS84 +units=m +no_defs"/>

    <poly id="108159980" type="amenity" color="237,199,199" fill="1" layer="-1.00" shape="3110.73,3650.38 3134.48,3695.14 3045.91,3742.41 3073.61,3793.99 3288.28,3678.74 3220.77,3554.62 3169.86,3582.26 3185.06,3610.46 3110.73,3650.38"/>
    <poly id="221156627" type="landuse" color="194,194,130" fill="1" layer="-3.00" shape="3219.41,3076.35 3206.41,3052.23 3206.04,3050.76 3202.12,3043.48 3223.69,3031.85 3241.31,3064.54 3229.26,3071.23 3219.41,3076.35"/>
    <poly id="221674461" type="building" color="255,230,230" fill="1" layer="-1.00" shape="3356.50,3551.38 3343.83,3527.89 3342.28,3525.12 3374.64,3507.40 3376.04,3510.15 3388.86,3533.95 3356.50,3551.38"/>
    <poly id="22900913" type="tourism" color="207,245,201" fill="1" layer="-2.00" shape="2584.84,3017.33 2550.90,3035.35 2562.47,3056.95 2565.19,3062.04 2574.85,3080.09 2577.63,3085.29 2610.88,3067.44 2607.57,3061.34 2603.83,3054.29 2590.88,3029.94 2591.40,3029.67 2584.84,3017.33"/>
    <poly id="22961904" type="tourism" color="207,245,201" fill="1" layer="-2.00" shape="2347.74,3601.18 2361.22,3627.39 2417.18,3598.53 2408.94,3583.20 2401.62,3568.44 2358.67,3591.35 2360.16,3594.67 2350.45,3599.48 2347.74,3601.18"/>
    <poly id="248143760" type="building" color="255,230,230" fill="1" layer="-1.00" shape="3521.53,3462.03 3521.69,3462.34 3536.06,3454.64 3525.30,3434.58 3531.03,3431.51 3531.28,3431.97 3537.25,3428.76 3532.73,3420.36 3535.63,3418.80 3530.25,3408.97 3526.05,3401.33 3524.92,3399.26 3521.86,3393.59 3493.17,3409.05 3493.45,3409.56 3492.44,3410.04 3491.56,3410.86 3491.02,3411.84 3490.79,3413.04 3490.86,3413.84 3491.05,3414.51 3491.36,3415.11 3491.86,3415.74 3491.53,3415.91 3515.29,3460.18 3515.61,3460.01 3515.99,3460.76 3516.55,3461.47 3517.25,3462.02 3518.09,3462.42 3518.90,3462.61 3519.62,3462.63 3520.49,3462.48 3521.20,3462.20 3521.53,3462.03"/>
    <poly id="248143998" type="building" color="255,230,230" fill="1" layer="-1.00" shape="3483.31,3503.94 3478.23,3506.68 3489.08,3526.82 3494.16,3524.06 3486.65,3510.13 3483.31,3503.94"/>
    <poly id="248144000" type="building" color="255,230,230" fill="1" layer="-1.00" shape="3478.23,3506.68 3472.67,3509.68 3484.01,3530.73 3489.57,3527.73 3489.08,3526.82 3478.23,3506.68"/>
    <poly id="248144004" type="building" color="255,230,230" fill="1" layer="-1.00" shape="3447.93,3502.11 3463.80,3493.55 3450.85,3469.51 3434.97,3478.07 3447.93,3502.11"/>
    <poly id="248144005" type="building" color="255,230,230" fill="1" layer="-1.00" shape="3472.67,3509.68 3467.43,3512.51 3468.04,3513.62 3479.07,3534.08 3484.30,3531.27 3484.01,3530.73 3472.67,3509.68"/>
    <poly id="248144006" type="building" color="255,230,230" fill="1" layer="-1.00" shape="3488.37,3538.84 3482.96,3541.75 3495.01,3564.10 3500.42,3561.18 3493.92,3549.12 3490.48,3542.74 3488.37,3538.84"/>
    <poly id="248144009" type="building" color="255,230,230" fill="1" layer="-1.00" shape="3404.23,3402.43 3412.05,3398.22 3397.87,3371.90 3376.86,3383.22 3389.71,3407.05 3396.99,3403.12 3399.62,3408.02 3405.53,3404.83 3404.23,3402.43"/>
    <poly id="248144011" type="building" color="255,230,230" fill="1" layer="-1.00" shape="3435.63,3440.36 3428.39,3444.26 3441.38,3468.38 3448.63,3464.48 3439.20,3446.97 3435.63,3440.36"/>
    <poly id="248144013" type="building" color="255,230,230" fill="1" layer="-1.00" shape="3468.04,3513.62 3462.51,3516.60 3473.53,3537.06 3479.07,3534.08 3468.04,3513.62"/>
    <poly id="248144018" type="building" color="255,230,230" fill="1" layer="-1.00" shape="3378.60,3335.55 3368.08,3341.23 3378.74,3361.00 3389.26,3355.33 3389.17,3355.15 3378.60,3335.55"/>
    <poly id="248144019" type="building" color="255,230,230" fill="1" layer="-1.00" shape="3481.88,3539.74 3476.73,3542.52 3480.72,3549.92 3489.86,3566.88 3495.01,3564.10 3482.96,3541.75 3481.88,3539.74"/>
    <poly id="248144022" type="building" color="255,230,230" fill="1" layer="-1.00" shape="3375.79,3330.33 3374.45,3327.81 3373.27,3325.63 3369.60,3327.58 3368.11,3324.81 3367.75,3325.01 3362.15,3314.58 3362.51,3314.39 3361.05,3311.66 3364.70,3309.72 3363.72,3307.88 3360.87,3302.64 3347.54,3309.83 3362.46,3337.51 3365.26,3336.00 3375.79,3330.33"/>
    <poly id="248144023" type="building" color="255,230,230" fill="1" layer="-1.00" shape="3428.39,3444.26 3415.36,3451.28 3427.77,3474.31 3428.36,3475.40 3441.38,3468.38 3428.39,3444.26"/>
    <poly id="248144025" type="building" color="255,230,230" fill="1" layer="-1.00" shape="3405.53,3404.83 3399.62,3408.02 3394.45,3410.81 3395.19,3412.18 3407.31,3434.67 3418.39,3428.70 3416.55,3425.26 3408.67,3410.77 3405.53,3404.83"/>
    <poly id="248144026" type="building" color="255,230,230" fill="1" layer="-1.00" shape="3480.72,3549.92 3479.98,3550.32 3476.33,3543.61 3471.75,3546.08 3484.48,3569.78 3489.86,3566.88 3480.72,3549.92"/>
    <poly id="248144027" type="building" color="255,230,230" fill="1" layer="-1.00" shape="3471.75,3546.08 3466.25,3549.05 3476.80,3568.86 3478.98,3572.74 3484.48,3569.78 3471.75,3546.08"/>
    <poly id="248144028" type="building" color="255,230,230" fill="1" layer="-1.00" shape="3451.41,3521.15 3445.82,3524.16 3458.72,3548.08 3464.31,3545.07 3451.41,3521.15"/>
    <poly id="248144029" type="building" color="255,230,230" fill="1" layer="-1.00" shape="3395.19,3412.18 3372.07,3424.64 3384.20,3447.13 3407.31,3434.67 3395.19,3412.18"/>
    <poly id="248144030" type="building" color="255,230,230" fill="1" layer="-1.00" shape="3424.18,3484.20 3412.60,3490.44 3412.76,3490.74 3425.42,3514.24 3437.00,3508.00 3424.18,3484.20"/>
    <poly id="248144031" type="building" color="255,230,230" fill="1" layer="-1.00" shape="3445.82,3524.16 3432.26,3531.47 3444.36,3553.92 3445.16,3555.40 3458.72,3548.08 3445.82,3524.16"/>
    <poly id="248144034" type="building" color="255,230,230" fill="1" layer="-1.00" shape="3376.86,3383.22 3371.54,3386.10 3387.61,3415.90 3391.17,3413.99 3387.94,3408.00 3389.71,3407.05 3376.86,3383.22"/>
    <poly id="248144037" type="building" color="255,230,230" fill="1" layer="-1.00" shape="3371.54,3386.10 3364.58,3389.85 3370.16,3400.21 3372.27,3404.14 3377.74,3414.27 3380.64,3419.67 3387.61,3415.90 3371.54,3386.10"/>
    <poly id="248144040" type="building" color="255,230,230" fill="1" layer="-1.00" shape="3415.36,3451.28 3402.53,3458.20 3405.44,3463.58 3407.31,3464.51 3410.84,3471.07 3410.43,3472.31 3413.26,3477.56 3419.25,3474.33 3421.16,3477.87 3427.77,3474.31 3415.36,3451.28"/>
    <poly id="248144043" type="building" color="255,230,230" fill="1" layer="-1.00" shape="3412.76,3490.74 3402.47,3496.29 3415.13,3519.78 3425.42,3514.24 3412.76,3490.74"/>
    <poly id="248144046" type="building" color="255,230,230" fill="1" layer="-1.00" shape="3456.05,3556.26 3451.02,3558.97 3463.79,3582.66 3468.82,3579.94 3465.99,3574.69 3457.07,3558.14 3456.05,3556.26"/>
    <poly id="248144048" type="building" color="255,230,230" fill="1" layer="-1.00" shape="3372.27,3404.14 3369.52,3405.62 3367.41,3401.68 3370.16,3400.21 3364.58,3389.85 3337.53,3404.43 3343.06,3414.71 3346.22,3413.01 3348.85,3417.89 3345.69,3419.59 3350.44,3428.39 3350.69,3428.85 3377.74,3414.27 3372.27,3404.14"/>
    <poly id="248144049" type="building" color="255,230,230" fill="1" layer="-1.00" shape="3343.82,3351.66 3337.54,3355.05 3349.72,3377.64 3356.00,3374.25 3355.59,3373.48 3343.82,3351.66"/>
    <poly id="248144050" type="building" color="255,230,230" fill="1" layer="-1.00" shape="3447.83,3557.57 3421.66,3571.68 3435.73,3597.78 3461.90,3583.67 3447.83,3557.57"/>
    <poly id="248144051" type="building" color="255,230,230" fill="1" layer="-1.00" shape="3411.23,3477.67 3410.05,3478.30 3407.21,3473.04 3406.52,3473.42 3402.98,3466.87 3390.51,3473.59 3391.58,3475.59 3390.97,3475.92 3393.22,3480.08 3396.37,3478.38 3397.51,3480.51 3393.33,3482.76 3396.94,3489.46 3412.94,3480.84 3411.23,3477.67"/>
    <poly id="248144052" type="building" color="255,230,230" fill="1" layer="-1.00" shape="3402.31,3496.00 3376.04,3510.15 3388.86,3533.95 3415.13,3519.78 3402.47,3496.29 3402.31,3496.00"/>
    <poly id="248144053" type="building" color="255,230,230" fill="1" layer="-1.00" shape="3337.54,3355.05 3330.71,3358.73 3333.64,3364.16 3339.36,3374.77 3342.89,3381.33 3349.72,3377.64 3337.54,3355.05"/>
    <poly id="248144054" type="building" color="255,230,230" fill="1" layer="-1.00" shape="3371.46,3423.50 3353.60,3433.12 3363.41,3451.31 3366.34,3456.76 3384.20,3447.13 3372.07,3424.64 3371.46,3423.50"/>
    <poly id="248144055" type="building" color="255,230,230" fill="1" layer="-1.00" shape="3339.36,3374.77 3338.34,3374.55 3335.67,3369.60 3333.28,3365.17 3333.64,3364.16 3330.71,3358.73 3330.30,3357.96 3323.68,3361.53 3326.90,3367.51 3327.90,3367.88 3332.98,3377.32 3332.80,3378.44 3336.27,3384.90 3342.89,3381.33 3339.36,3374.77"/>
    <poly id="248144056" type="building" color="255,230,230" fill="1" layer="-1.00" shape="3332.80,3378.44 3331.57,3378.04 3326.50,3368.64 3326.90,3367.51 3323.68,3361.53 3316.76,3365.25 3318.24,3368.00 3320.08,3371.41 3321.17,3371.59 3326.04,3380.61 3325.57,3381.59 3329.36,3388.62 3336.27,3384.90 3332.80,3378.44"/>
    <poly id="248144057" type="building" color="255,230,230" fill="1" layer="-1.00" shape="3337.53,3404.43 3317.68,3415.12 3329.59,3437.24 3330.59,3439.09 3350.44,3428.39 3345.69,3419.59 3343.06,3414.71 3337.53,3404.43"/>
    <poly id="248144058" type="building" color="255,230,230" fill="1" layer="-1.00" shape="3300.66,3335.09 3287.14,3342.39 3293.82,3354.77 3296.27,3353.44 3299.55,3359.53 3296.91,3360.95 3301.27,3369.04 3314.97,3361.65 3313.36,3358.66 3300.66,3335.09"/>
    <poly id="248144059" type="amenity" color="237,199,199" fill="1" layer="-1.00" shape="3373.73,3503.25 3393.79,3492.44 3387.86,3481.44 3391.42,3479.52 3385.02,3467.64 3361.40,3480.37 3373.73,3503.25"/>
    <poly id="248144059#1" type="building" color="255,230,230" fill="1" layer="-1.00" shape="3373.73,3503.25 3393.79,3492.44 3387.86,3481.44 3391.42,3479.52 3385.02,3467.64 3361.40,3480.37 3373.73,3503.25"/>
    <poly id="248144061" type="building" color="255,230,230" fill="1" layer="-1.00" shape="3363.41,3451.31 3361.67,3450.97 3353.17,3435.20 3348.25,3437.87 3350.33,3441.73 3350.05,3443.93 3359.08,3460.67 3366.34,3456.76 3363.41,3451.31"/>
    <poly id="248144063" type="building" color="255,230,230" fill="1" layer="-1.00" shape="3318.24,3368.00 3304.90,3375.19 3316.02,3395.81 3329.36,3388.62 3325.57,3381.59 3320.08,3371.41 3318.24,3368.00"/>
    <poly id="248144064" type="building" color="255,230,230" fill="1" layer="-1.00" shape="3345.15,3434.82 3338.83,3438.24 3352.76,3464.09 3359.08,3460.67 3350.05,3443.93 3345.15,3434.82"/>
    <poly id="248144065" type="building" color="255,230,230" fill="1" layer="-1.00" shape="3427.63,3602.51 3434.18,3598.97 3421.18,3574.84 3414.61,3578.37 3415.49,3579.99 3418.37,3585.34 3421.08,3590.36 3422.41,3592.84 3424.38,3596.50 3427.63,3602.51"/>
    <poly id="248144066" type="building" color="255,230,230" fill="1" layer="-1.00" shape="3296.91,3360.95 3295.69,3361.62 3292.40,3355.53 3293.82,3354.77 3287.14,3342.39 3280.50,3345.96 3295.56,3373.90 3302.02,3370.43 3301.27,3369.04 3296.91,3360.95"/>
    <poly id="248144067" type="building" color="255,230,230" fill="1" layer="-1.00" shape="3424.38,3596.50 3423.14,3596.55 3421.83,3594.12 3422.41,3592.84 3421.08,3590.36 3419.59,3591.16 3416.89,3586.15 3418.37,3585.34 3415.49,3579.99 3408.67,3583.67 3411.59,3589.07 3413.15,3588.24 3415.84,3593.23 3414.28,3594.07 3415.50,3596.32 3416.82,3596.88 3418.14,3599.33 3417.86,3600.70 3420.66,3605.90 3420.81,3606.19 3427.63,3602.51 3424.38,3596.50"/>
    <poly id="248144068" type="building" color="255,230,230" fill="1" layer="-1.00" shape="3405.70,3545.79 3385.52,3556.67 3397.62,3579.12 3417.80,3568.25 3405.70,3545.79"/>
    <poly id="248144069" type="building" color="255,230,230" fill="1" layer="-1.00" shape="3280.50,3345.96 3273.86,3349.54 3279.57,3360.13 3280.57,3359.59 3283.75,3365.49 3282.74,3366.03 3288.48,3376.66 3288.92,3377.48 3295.56,3373.90 3280.50,3345.96"/>
    <poly id="248144070" type="building" color="255,230,230" fill="1" layer="-1.00" shape="3317.68,3415.12 3304.36,3422.31 3316.28,3444.42 3329.59,3437.24 3317.68,3415.12"/>
    <poly id="248144071" type="building" color="255,230,230" fill="1" layer="-1.00" shape="3325.75,3478.64 3347.54,3466.89 3335.03,3443.69 3313.24,3455.43 3325.75,3478.64"/>
    <poly id="248144072" type="building" color="255,230,230" fill="1" layer="-1.00" shape="3304.90,3375.19 3291.24,3382.56 3302.36,3403.17 3316.02,3395.81 3304.90,3375.19"/>
    <poly id="248144073" type="building" color="255,230,230" fill="1" layer="-1.00" shape="3406.59,3579.80 3399.75,3583.49 3400.99,3585.79 3413.82,3609.58 3420.66,3605.90 3417.86,3600.70 3415.50,3596.32 3414.28,3594.07 3411.59,3589.07 3408.67,3583.67 3406.59,3579.80"/>
    <poly id="248144074" type="building" color="255,230,230" fill="1" layer="-1.00" shape="3361.40,3480.37 3347.88,3487.66 3360.63,3511.32 3374.15,3504.02 3373.73,3503.25 3361.40,3480.37"/>
    <poly id="248144075" type="building" color="255,230,230" fill="1" layer="-1.00" shape="3273.86,3349.54 3267.24,3353.11 3268.23,3354.94 3267.86,3355.13 3269.84,3358.80 3270.26,3358.57 3271.29,3359.33 3278.69,3373.03 3278.42,3374.73 3281.50,3380.43 3288.48,3376.66 3282.74,3366.03 3279.57,3360.13 3273.86,3349.54"/>
    <poly id="248144076" type="building" color="255,230,230" fill="1" layer="-1.00" shape="3385.52,3556.67 3372.38,3563.76 3385.27,3587.67 3398.42,3580.60 3397.62,3579.12 3385.52,3556.67"/>
    <poly id="248144077" type="building" color="255,230,230" fill="1" layer="-1.00" shape="3400.99,3585.79 3395.14,3588.94 3398.94,3595.99 3402.71,3593.97 3403.29,3595.06 3401.33,3596.12 3406.78,3606.22 3405.33,3607.00 3402.01,3600.85 3398.80,3602.58 3402.11,3608.74 3401.43,3609.11 3395.98,3599.00 3394.09,3600.02 3393.50,3598.93 3397.04,3597.02 3393.24,3589.97 3387.68,3592.96 3400.51,3616.77 3413.82,3609.58 3400.99,3585.79"/>
    <poly id="248144078" type="building" color="255,230,230" fill="1" layer="-1.00" shape="3304.36,3422.31 3286.29,3432.05 3299.21,3456.00 3317.27,3446.26 3316.28,3444.42 3304.36,3422.31"/>
    <poly id="248144079" type="building" color="255,230,230" fill="1" layer="-1.00" shape="3266.87,3353.31 3260.61,3356.68 3277.19,3387.46 3283.46,3384.08 3281.50,3380.43 3278.42,3374.73 3269.84,3358.80 3267.86,3355.13 3266.87,3353.31"/>
    <poly id="248144080" type="building" color="255,230,230" fill="1" layer="-1.00" shape="3291.24,3382.56 3267.26,3395.48 3278.00,3415.41 3278.38,3416.11 3302.36,3403.17 3291.24,3382.56"/>
    <poly id="248144081" type="building" color="255,230,230" fill="1" layer="-1.00" shape="3260.61,3356.68 3256.47,3358.91 3259.69,3367.29 3269.26,3392.18 3277.38,3387.79 3277.19,3387.46 3260.61,3356.68"/>
    <poly id="248144082" type="building" color="255,230,230" fill="1" layer="-1.00" shape="3256.47,3358.91 3247.02,3364.01 3259.86,3387.81 3266.08,3384.45 3263.34,3377.14 3258.40,3367.98 3259.69,3367.29 3256.47,3358.91"/>
    <poly id="248144083" type="building" color="255,230,230" fill="1" layer="-1.00" shape="3347.88,3487.66 3339.24,3492.31 3352.00,3515.97 3360.63,3511.32 3347.88,3487.66"/>
    <poly id="248144084" type="building" color="255,230,230" fill="1" layer="-1.00" shape="3372.38,3563.76 3365.04,3567.70 3377.51,3590.86 3379.15,3593.90 3386.49,3589.94 3385.27,3587.67 3372.38,3563.76"/>
    <poly id="248144085" type="building" color="255,230,230" fill="1" layer="-1.00" shape="3312.97,3454.92 3301.46,3461.11 3314.24,3484.84 3325.75,3478.64 3313.24,3455.43 3312.97,3454.92"/>
    <poly id="248144086" type="building" color="255,230,230" fill="1" layer="-1.00" shape="3365.04,3567.70 3358.98,3570.97 3371.24,3593.72 3371.45,3594.12 3377.51,3590.86 3365.04,3567.70"/>
    <poly id="248144087" type="building" color="255,230,230" fill="1" layer="-1.00" shape="3247.02,3364.01 3240.14,3367.72 3252.97,3391.52 3259.86,3387.81 3247.02,3364.01"/>
    <poly id="248144088" type="building" color="255,230,230" fill="1" layer="-1.00" shape="3339.24,3492.31 3334.74,3494.75 3347.50,3518.39 3352.00,3515.97 3339.24,3492.31"/>
    <poly id="248144089" type="building" color="255,230,230" fill="1" layer="-1.00" shape="3358.98,3570.97 3347.44,3577.19 3359.70,3599.94 3363.93,3597.65 3371.24,3593.72 3358.98,3570.97"/>
    <poly id="248144090" type="building" color="255,230,230" fill="1" layer="-1.00" shape="3240.14,3367.72 3233.63,3371.23 3241.79,3386.37 3246.47,3395.02 3252.97,3391.52 3240.14,3367.72"/>
    <poly id="248144091" type="building" color="255,230,230" fill="1" layer="-1.00" shape="3286.29,3432.05 3277.06,3437.03 3289.97,3460.98 3299.21,3456.00 3286.29,3432.05"/>
    <poly id="248144092" type="building" color="255,230,230" fill="1" layer="-1.00" shape="3334.74,3494.75 3326.32,3499.28 3334.14,3513.79 3335.16,3515.67 3338.52,3521.92 3339.08,3522.94 3347.50,3518.39 3334.74,3494.75"/>
    <poly id="248144094" type="building" color="255,230,230" fill="1" layer="-1.00" shape="3347.44,3577.19 3339.64,3581.40 3350.93,3602.34 3353.12,3606.39 3360.92,3602.18 3359.70,3599.94 3347.44,3577.19"/>
    <poly id="248144095" type="building" color="255,230,230" fill="1" layer="-1.00" shape="3263.83,3389.14 3248.80,3397.24 3262.97,3423.51 3278.00,3415.41 3267.26,3395.48 3263.83,3389.14"/>
    <poly id="248144096" type="building" color="255,230,230" fill="1" layer="-1.00" shape="3301.46,3461.11 3282.80,3471.18 3295.59,3494.91 3314.24,3484.84 3301.46,3461.11"/>
    <poly id="248144097" type="building" color="255,230,230" fill="1" layer="-1.00" shape="3353.10,3608.25 3351.97,3608.86 3339.71,3615.47 3333.27,3618.94 3335.04,3622.20 3347.50,3645.34 3367.33,3634.65 3353.97,3609.86 3353.10,3608.25"/>
    <poly id="248144098" type="building" color="255,230,230" fill="1" layer="-1.00" shape="3335.16,3515.67 3332.95,3516.86 3331.93,3514.99 3334.14,3513.79 3326.32,3499.28 3286.31,3520.85 3294.18,3535.44 3296.29,3534.29 3297.28,3536.15 3295.18,3537.28 3299.01,3544.41 3300.29,3546.77 3307.50,3542.89 3308.70,3539.31 3334.47,3525.43 3333.91,3524.40 3338.52,3521.92 3335.16,3515.67"/>
    <poly id="248144099" type="building" color="255,230,230" fill="1" layer="-1.00" shape="3277.06,3437.03 3261.13,3445.61 3273.45,3468.46 3274.05,3469.57 3289.97,3460.98 3277.06,3437.03"/>
    <poly id="248144100" type="building" color="255,230,230" fill="1" layer="-1.00" shape="3281.65,3469.06 3275.55,3472.35 3274.05,3469.57 3273.45,3468.46 3252.43,3479.80 3260.89,3495.42 3265.09,3503.21 3266.38,3505.61 3268.46,3509.53 3295.59,3494.91 3282.80,3471.18 3281.65,3469.06"/>
    <poly id="248144101" type="building" color="255,230,230" fill="1" layer="-1.00" shape="3248.80,3397.24 3233.88,3405.28 3248.42,3432.25 3263.34,3424.20 3262.97,3423.51 3248.80,3397.24"/>
    <poly id="248144102" type="building" color="255,230,230" fill="1" layer="-1.00" shape="3325.60,3536.84 3313.39,3543.42 3314.65,3545.74 3326.43,3567.60 3338.63,3561.03 3325.97,3537.52 3325.60,3536.84"/>
    <poly id="248144103" type="building" color="255,230,230" fill="1" layer="-1.00" shape="3341.05,3648.82 3347.50,3645.34 3335.04,3622.20 3328.44,3625.76 3341.05,3648.82"/>
    <poly id="248144104" type="building" color="255,230,230" fill="1" layer="-1.00" shape="3211.45,3383.19 3205.53,3386.38 3215.69,3405.23 3221.61,3402.03 3211.45,3383.19"/>
    <poly id="248144105" type="building" color="255,230,230" fill="1" layer="-1.00" shape="3236.46,3410.90 3230.52,3414.10 3227.59,3408.67 3219.33,3413.12 3222.19,3418.44 3223.24,3417.87 3230.78,3431.88 3243.95,3424.78 3236.46,3410.90"/>
    <poly id="248144106" type="building" color="255,230,230" fill="1" layer="-1.00" shape="3314.65,3545.74 3300.85,3553.16 3299.75,3551.13 3290.28,3556.23 3296.24,3567.29 3299.54,3573.40 3303.17,3580.14 3326.43,3567.60 3314.65,3545.74"/>
    <poly id="248144107" type="building" color="255,230,230" fill="1" layer="-1.00" shape="3205.53,3386.38 3194.28,3392.44 3204.19,3410.84 3207.69,3417.32 3218.94,3411.25 3215.69,3405.23 3205.53,3386.38"/>
    <poly id="248144108" type="building" color="255,230,230" fill="1" layer="-1.00" shape="3261.13,3445.61 3240.07,3456.86 3242.13,3460.59 3243.32,3462.80 3247.22,3470.04 3252.43,3479.80 3273.45,3468.46 3261.13,3445.61"/>
    <poly id="248144109" type="building" color="255,230,230" fill="1" layer="-1.00" shape="3222.90,3445.12 3233.08,3439.65 3220.53,3416.39 3210.36,3421.87 3212.92,3426.61 3222.90,3445.12"/>
    <poly id="248144110" type="building" color="255,230,230" fill="1" layer="-1.00" shape="3286.31,3520.85 3274.22,3527.37 3277.31,3533.10 3286.96,3551.01 3291.69,3548.46 3291.03,3547.26 3293.55,3545.90 3294.15,3547.03 3299.01,3544.41 3295.18,3537.28 3294.18,3535.44 3286.31,3520.85"/>
    <poly id="248144111" type="building" color="255,230,230" fill="1" layer="-1.00" shape="3299.54,3573.40 3290.90,3578.06 3294.53,3584.80 3303.17,3580.14 3299.54,3573.40"/>
    <poly id="248144112" type="building" color="255,230,230" fill="1" layer="-1.00" shape="3212.92,3426.61 3207.46,3429.56 3210.74,3435.65 3213.84,3441.40 3217.80,3448.75 3223.26,3445.81 3222.90,3445.12 3212.92,3426.61"/>
    <poly id="248144113" type="building" color="255,230,230" fill="1" layer="-1.00" shape="3204.19,3410.84 3194.28,3392.44 3172.52,3404.17 3184.85,3427.04 3199.75,3419.00 3197.33,3414.53 3198.90,3413.69 3204.19,3410.84"/>
    <poly id="248144114" type="building" color="255,230,230" fill="1" layer="-1.00" shape="3198.90,3413.69 3197.33,3414.53 3199.75,3419.00 3184.85,3427.04 3190.99,3438.43 3207.46,3429.56 3198.90,3413.69"/>
    <poly id="248144115" type="building" color="255,230,230" fill="1" layer="-1.00" shape="3207.46,3429.56 3190.99,3438.43 3194.27,3444.52 3210.74,3435.65 3207.46,3429.56"/>
    <poly id="248144116" type="building" color="255,230,230" fill="1" layer="-1.00" shape="3210.74,3435.65 3194.27,3444.52 3197.37,3450.28 3213.84,3441.40 3210.74,3435.65"/>
    <poly id="248144117" type="building" color="255,230,230" fill="1" layer="-1.00" shape="3279.75,3539.96 3254.30,3553.67 3257.73,3560.04 3283.19,3546.32 3279.75,3539.96"/>
    <poly id="248144118" type="building" color="255,230,230" fill="1" layer="-1.00" shape="3286.27,3552.03 3283.19,3546.32 3257.73,3560.04 3260.80,3565.75 3285.66,3552.36 3286.27,3552.03"/>
    <poly id="248144119" type="building" color="255,230,230" fill="1" layer="-1.00" shape="3285.66,3552.36 3260.80,3565.75 3266.44,3576.20 3291.29,3562.80 3285.66,3552.36"/>
    <poly id="248144120" type="building" color="255,230,230" fill="1" layer="-1.00" shape="3291.29,3562.80 3266.44,3576.20 3269.43,3581.75 3294.28,3568.35 3291.29,3562.80"/>
    <poly id="248144121" type="building" color="255,230,230" fill="1" layer="-1.00" shape="3299.54,3573.40 3296.24,3567.29 3294.28,3568.35 3269.43,3581.75 3272.72,3587.86 3290.90,3578.06 3299.54,3573.40"/>
    <poly id="248144122" type="building" color="255,230,230" fill="1" layer="-1.00" shape="3323.28,3614.57 3313.10,3595.70 3285.04,3610.83 3296.37,3631.85 3316.84,3620.82 3315.68,3618.67 3322.61,3614.93 3323.28,3614.57"/>
    <poly id="248144123" type="building" color="255,230,230" fill="1" layer="-1.00" shape="3427.51,3362.17 3417.09,3367.79 3419.96,3372.86 3430.28,3367.29 3427.51,3362.17"/>
    <poly id="248144124" type="building" color="255,230,230" fill="1" layer="-1.00" shape="3430.28,3367.29 3419.96,3372.86 3419.76,3372.96 3422.52,3378.08 3433.03,3372.41 3430.28,3367.29"/>
    <poly id="248144125" type="building" color="255,230,230" fill="1" layer="-1.00" shape="3433.48,3372.17 3433.03,3372.41 3422.52,3378.08 3422.87,3378.72 3417.17,3381.78 3419.76,3386.60 3436.42,3377.62 3433.48,3372.17"/>
    <poly id="248144126" type="building" color="255,230,230" fill="1" layer="-1.00" shape="3439.38,3383.10 3436.42,3377.62 3419.76,3386.60 3422.72,3392.08 3438.84,3383.40 3439.38,3383.10"/>
    <poly id="248144127" type="building" color="255,230,230" fill="1" layer="-1.00" shape="3438.84,3383.40 3422.72,3392.08 3422.88,3392.38 3420.08,3393.88 3424.19,3401.51 3425.93,3404.73 3441.15,3396.54 3444.82,3394.51 3438.84,3383.40"/>
    <poly id="248144130" type="building" color="255,230,230" fill="1" layer="-1.00" shape="3506.05,3506.76 3503.09,3501.26 3500.77,3502.51 3489.24,3508.74 3492.20,3514.24 3492.47,3514.09 3506.05,3506.76"/>
    <poly id="248144131" type="building" color="255,230,230" fill="1" layer="-1.00" shape="3506.05,3506.76 3492.47,3514.09 3495.23,3519.21 3508.81,3511.89 3506.05,3506.76"/>
    <poly id="248144132" type="building" color="255,230,230" fill="1" layer="-1.00" shape="3508.81,3511.89 3495.23,3519.21 3498.10,3524.54 3511.69,3517.22 3508.81,3511.89"/>
    <poly id="248144133" type="building" color="255,230,230" fill="1" layer="-1.00" shape="3514.68,3522.78 3511.69,3517.22 3498.10,3524.54 3497.62,3524.79 3497.86,3525.23 3484.83,3532.25 3487.59,3537.38 3494.00,3533.92 3514.68,3522.78"/>
    <poly id="248144134" type="building" color="255,230,230" fill="1" layer="-1.00" shape="3517.57,3528.13 3514.68,3522.78 3494.00,3533.92 3494.79,3535.39 3488.37,3538.84 3490.48,3542.74 3493.12,3541.32 3517.57,3528.13"/>
    <poly id="248144135" type="building" color="255,230,230" fill="1" layer="-1.00" shape="3517.57,3528.13 3493.12,3541.32 3496.56,3547.70 3521.02,3534.52 3517.57,3528.13"/>
    <poly id="248144136" type="building" color="255,230,230" fill="1" layer="-1.00" shape="3462.48,3555.23 3457.07,3558.14 3465.99,3574.69 3471.40,3571.78 3476.80,3568.86 3467.89,3552.32 3467.00,3552.80 3462.48,3555.23"/>
    <poly id="248144136#1" type="tourism" color="207,245,201" fill="1" layer="-2.00" shape="3462.48,3555.23 3457.07,3558.14 3465.99,3574.69 3471.40,3571.78 3476.80,3568.86 3467.89,3552.32 3467.00,3552.80 3462.48,3555.23"/>
    <poly id="248144137" type="building" color="255,230,230" fill="1" layer="-1.00" shape="3465.13,3549.31 3460.61,3551.76 3462.48,3555.23 3467.00,3552.80 3465.13,3549.31"/>
    <poly id="248144138" type="building" color="255,230,230" fill="1" layer="-1.00" shape="3317.44,3634.33 3302.16,3642.57 3313.52,3663.65 3328.81,3655.41 3317.44,3634.33"/>
    <poly id="248144139" type="building" color="255,230,230" fill="1" layer="-1.00" shape="3213.84,3441.40 3197.37,3450.28 3201.33,3457.63 3217.80,3448.75 3213.84,3441.40"/>
    <poly id="248144140" type="building" color="255,230,230" fill="1" layer="-1.00" shape="3432.26,3531.47 3405.70,3545.79 3417.80,3568.25 3444.36,3553.92 3432.26,3531.47"/>
    <poly id="248144141" type="building" color="255,230,230" fill="1" layer="-1.00" shape="3290.90,3578.06 3272.72,3587.86 3276.35,3594.59 3294.53,3584.80 3290.90,3578.06"/>
    <poly id="248144142" type="building" color="255,230,230" fill="1" layer="-1.00" shape="3338.63,3561.03 3356.50,3551.38 3343.83,3527.89 3325.97,3537.52 3338.63,3561.03"/>
    <poly id="248144143" type="building" color="255,230,230" fill="1" layer="-1.00" shape="3466.34,3432.35 3462.76,3425.73 3435.63,3440.36 3439.20,3446.97 3449.65,3441.31 3459.99,3435.75 3465.51,3432.79 3466.34,3432.35"/>
    <poly id="248144144" type="building" color="255,230,230" fill="1" layer="-1.00" shape="3470.07,3481.30 3473.73,3488.28 3491.24,3478.76 3487.53,3471.89 3486.80,3472.28 3481.41,3475.25 3470.07,3481.30"/>
    <poly id="248144146" type="building" color="255,230,230" fill="1" layer="-1.00" shape="3503.09,3501.26 3499.76,3495.09 3483.31,3503.94 3486.65,3510.13 3489.24,3508.74 3500.77,3502.51 3503.09,3501.26"/>
    <poly id="248144147" type="building" color="255,230,230" fill="1" layer="-1.00" shape="3434.97,3478.07 3424.05,3483.96 3424.18,3484.20 3437.00,3508.00 3447.93,3502.11 3434.97,3478.07"/>
    <poly id="248144148" type="building" color="255,230,230" fill="1" layer="-1.00" shape="3389.17,3355.15 3406.25,3345.90 3416.22,3340.56 3412.00,3332.73 3402.65,3315.40 3399.69,3309.91 3392.52,3296.61 3387.60,3287.47 3377.34,3293.30 3360.87,3302.64 3363.72,3307.88 3364.70,3309.72 3361.05,3311.66 3362.51,3314.39 3362.15,3314.58 3367.75,3325.01 3368.11,3324.81 3369.60,3327.58 3373.27,3325.63 3374.45,3327.81 3375.79,3330.33 3378.60,3335.55 3389.17,3355.15"/>
    <poly id="248144149" type="building" color="255,230,230" fill="1" layer="-1.00" shape="3461.90,3515.49 3451.41,3521.15 3464.31,3545.07 3474.80,3539.42 3473.53,3537.06 3462.51,3516.60 3461.90,3515.49"/>
    <poly id="248144150" type="building" color="255,230,230" fill="1" layer="-1.00" shape="3276.61,3534.11 3277.31,3533.10 3274.22,3527.37 3247.79,3541.61 3254.30,3553.67 3279.75,3539.96 3276.61,3534.11"/>
    <poly id="248144151" type="building" color="255,230,230" fill="1" layer="-1.00" shape="3327.19,3320.80 3300.66,3335.09 3313.36,3358.66 3327.06,3351.28 3329.45,3355.71 3342.28,3348.79 3327.19,3320.80"/>
    <poly id="248144152" type="amenity" color="237,199,199" fill="1" layer="-1.00" shape="3493.92,3549.12 3500.42,3561.18 3501.14,3562.51 3528.23,3547.92 3521.02,3534.52 3496.56,3547.70 3493.92,3549.12"/>
    <poly id="248144152#1" type="building" color="255,230,230" fill="1" layer="-1.00" shape="3493.92,3549.12 3500.42,3561.18 3501.14,3562.51 3528.23,3547.92 3521.02,3534.52 3496.56,3547.70 3493.92,3549.12"/>