<?xml version="1.0" encoding="UTF-8"?>

<!-- generated on Sun May 28 11:34:37 2017 by SUMO netconvert Version 0.28.0
<?xml version="1.0" encoding="UTF-8"?>

<configuration xmlns:xsi="http://www.w3.org/2001/XMLSchema-instance" xsi:noNamespaceSchemaLocation="http://sumo.dlr.de/xsd/netconvertConfiguration.xsd">

    <input>
        <osm-files value="new-york.osm"/>
    </input>

    <output>
        <output-file value="new-york.net.xml"/>
        <output.street-names value="true"/>
        <output.original-names value="true"/>
    </output>

    <projection>
        <proj.utm value="true"/>
    </projection>

</configuration>
-->

<net version="0.27" xmlns:xsi="http://www.w3.org/2001/XMLSchema-instance" xsi:noNamespaceSchemaLocation="http://sumo.dlr.de/xsd/net_file.xsd">

    <location netOffset="-581679.06,-4507506.70" convBoundary="0.00,0.00,5110.80,5425.50" origBoundary="-74.032723,40.710904,-73.972272,40.762901" projParameter="+proj=utm +zone=18 +ellps=WGS84 +datum=WGS84 +units=m +no_defs"/>

    <type id="highway.bridleway" priority="1" numLanes="1" speed="2.78" allow="pedestrian" oneway="1" width="2.00"/>
    <type id="highway.bus_guideway" priority="1" numLanes="1" speed="8.33" allow="bus" oneway="1"/>
    <type id="highway.cycleway" priority="1" numLanes="1" speed="5.56" allow="bicycle" oneway="0" width="1.00"/>
    <type id="highway.footway" priority="1" numLanes="1" speed="2.78" allow="pedestrian" oneway="1" width="2.00"/>
    <type id="highway.ford" priority="1" numLanes="1" speed="2.78" allow="army" oneway="0"/>
    <type id="highway.living_street" priority="3" numLanes="1" speed="2.78" disallow="tram rail_urban rail rail_electric ship" oneway="0"/>
    <type id="highway.motorway" priority="13" numLanes="2" speed="44.44" allow="private emergency authority army vip passenger hov taxi bus coach delivery truck trailer motorcycle evehicle custom1 custom2" oneway="1"/>
    <type id="highway.motorway_link" priority="12" numLanes="1" speed="22.22" allow="private emergency authority army vip passenger hov taxi bus coach delivery truck trailer motorcycle evehicle custom1 custom2" oneway="1"/>
    <type id="highway.path" priority="1" numLanes="1" speed="2.78" allow="bicycle pedestrian" oneway="1" width="2.00"/>
    <type id="highway.pedestrian" priority="1" numLanes="1" speed="2.78" allow="pedestrian" oneway="1" width="2.00"/>
    <type id="highway.primary" priority="9" numLanes="2" speed="27.78" disallow="tram rail_urban rail rail_electric ship" oneway="0"/>
    <type id="highway.primary_link" priority="8" numLanes="1" speed="22.22" disallow="tram rail_urban rail rail_electric ship" oneway="0"/>
    <type id="highway.raceway" priority="14" numLanes="2" speed="83.33" allow="vip" oneway="0"/>
    <type id="highway.residential" priority="4" numLanes="1" speed="13.89" disallow="tram rail_urban rail rail_electric ship" oneway="0"/>
    <type id="highway.secondary" priority="7" numLanes="2" speed="27.78" disallow="tram rail_urban rail rail_electric ship" oneway="0"/>
    <type id="highway.secondary_link" priority="6" numLanes="1" speed="22.22" disallow="tram rail_urban rail rail_electric ship" oneway="0"/>
    <type id="highway.service" priority="2" numLanes="1" speed="5.56" allow="delivery bicycle pedestrian" oneway="0"/>
    <type id="highway.services" priority="1" numLanes="1" speed="8.33" disallow="tram rail_urban rail rail_electric ship" oneway="0"/>
    <type id="highway.stairs" priority="1" numLanes="1" speed="1.39" allow="pedestrian" oneway="1" width="2.00"/>
    <type id="highway.step" priority="1" numLanes="1" speed="1.39" allow="pedestrian" oneway="1" width="2.00"/>
    <type id="highway.steps" priority="1" numLanes="1" speed="1.39" allow="pedestrian" oneway="1" width="2.00"/>
    <type id="highway.tertiary" priority="6" numLanes="1" speed="22.22" disallow="tram rail_urban rail rail_electric ship" oneway="0"/>
    <type id="highway.tertiary_link" priority="5" numLanes="1" speed="22.22" disallow="tram rail_urban rail rail_electric ship" oneway="0"/>
    <type id="highway.track" priority="1" numLanes="1" speed="5.56" disallow="tram rail_urban rail rail_electric ship" oneway="0"/>
    <type id="highway.trunk" priority="11" numLanes="2" speed="27.78" disallow="tram rail_urban rail rail_electric bicycle pedestrian ship" oneway="0"/>
    <type id="highway.trunk_link" priority="10" numLanes="1" speed="22.22" disallow="tram rail_urban rail rail_electric bicycle pedestrian ship" oneway="0"/>
    <type id="highway.unclassified" priority="5" numLanes="1" speed="13.89" disallow="tram rail_urban rail rail_electric ship" oneway="0"/>
    <type id="highway.unsurfaced" priority="1" numLanes="1" speed="8.33" disallow="tram rail_urban rail rail_electric ship" oneway="0"/>
    <type id="railway.light_rail" priority="15" numLanes="1" speed="27.78" allow="rail_urban" oneway="1"/>
    <type id="railway.preserved" priority="15" numLanes="1" speed="27.78" allow="rail" oneway="1"/>
    <type id="railway.rail" priority="15" numLanes="1" speed="83.33" allow="rail rail_electric" oneway="1"/>
    <type id="railway.subway" priority="15" numLanes="1" speed="27.78" allow="rail_urban" oneway="1"/>
    <type id="railway.tram" priority="15" numLanes="1" speed="13.89" allow="tram" oneway="1"/>

    <edge id=":2013903253_0" function="internal">
        <lane id=":2013903253_0_0" index="0" allow="rail_urban" speed="27.78" length="5.65" shape="2540.22,2857.26 2540.59,2858.89 2541.35,2859.76 2542.51,2859.88 2544.05,2859.25"/>
    </edge>
    <edge id=":2013903253_1" function="internal">
        <lane id=":2013903253_1_0" index="0" allow="rail_urban" speed="27.78" length="7.06" shape="2540.22,2857.26 2540.40,2859.35 2540.64,2860.78 2541.15,2862.13 2542.15,2863.95"/>
    </edge>
    <edge id=":2013903253_2" function="internal">
        <lane id=":2013903253_2_0" index="0" allow="rail_urban" speed="27.78" length="6.99" shape="2537.90,2862.56 2544.05,2859.25"/>
    </edge>
    <edge id=":2013903253_3" function="internal">
        <lane id=":2013903253_3_0" index="0" allow="rail_urban" speed="27.78" length="1.63" shape="2537.90,2862.56 2539.17,2862.16 2539.46,2862.19"/>
    </edge>
    <edge id=":2013903253_4" function="internal">
        <lane id=":2013903253_4_0" index="0" speed="27.78" length="3.39" shape="2539.46,2862.19 2540.30,2862.26 2541.29,2862.85 2542.15,2863.95"/>
    </edge>
    <edge id=":2307164599_0" function="internal">
        <lane id=":2307164599_0_0" index="0" disallow="tram rail_urban rail rail_electric ship" speed="11.18" length="0.30" shape="3229.10,3630.65 3228.84,3630.79"/>
    </edge>
    <edge id=":246580758_0" function="internal">
        <lane id=":246580758_0_0" index="0" disallow="tram rail_urban rail rail_electric ship" speed="11.18" length="4.82" shape="2148.13,3854.37 2146.65,3854.22 2145.90,3853.69 2145.88,3852.76 2146.58,3851.46"/>
    </edge>
    <edge id=":2631319571_0" function="internal">
        <lane id=":2631319571_0_0" index="0" disallow="tram rail_urban rail rail_electric ship" speed="11.18" length="5.02" shape="2779.88,3562.88 2784.26,3560.43"/>
    </edge>
    <edge id=":2631319579_0" function="internal">
        <lane id=":2631319579_0_0" index="0" disallow="tram rail_urban rail rail_electric ship" speed="11.18" length="5.01" shape="2829.75,3667.00 2825.33,3669.35"/>
    </edge>
    <edge id=":2671667955_0" function="internal">
        <lane id=":2671667955_0_0" index="0" disallow="tram rail_urban rail rail_electric ship" speed="11.18" length="5.00" shape="2245.66,3527.32 2241.27,3529.71"/>
    </edge>
    <edge id=":2703104396_0" function="internal">
        <lane id=":2703104396_0_0" index="0" disallow="tram rail_urban rail rail_electric ship" speed="11.18" length="0.29" shape="3254.90,3616.67 3254.65,3616.81"/>
    </edge>
    <edge id=":2985573628_0" function="internal">
        <lane id=":2985573628_0_0" index="0" disallow="tram rail_urban rail rail_electric ship" speed="11.18" length="2.98" shape="2324.52,3031.88 2323.00,3029.31"/>
    </edge>
    <edge id=":3009534487_0" function="internal">
        <lane id=":3009534487_0_0" index="0" disallow="tram rail_urban rail rail_electric ship" speed="11.18" length="0.10" shape="3667.57,3305.79 3667.57,3305.79"/>
    </edge>
    <edge id=":3019039006_0" function="internal">
        <lane id=":3019039006_0_0" index="0" disallow="tram rail_urban rail rail_electric ship" speed="11.18" length="0.10" shape="3621.25,3061.43 3621.25,3061.43"/>
        <lane id=":3019039006_0_1" index="1" disallow="tram rail_urban rail rail_electric ship" speed="11.18" length="0.10" shape="3619.68,3058.52 3619.68,3058.53"/>
    </edge>
    <edge id=":3019039006_2" function="internal">
        <lane id=":3019039006_2_0" index="0" disallow="tram rail_urban rail rail_electric ship" speed="11.18" length="2.41" shape="3619.68,3058.52 3618.20,3058.39 3617.45,3057.86"/>
    </edge>
    <edge id=":3019039006_6" function="internal">
        <lane id=":3019039006_6_0" index="0" speed="11.18" length="2.41" shape="3617.45,3057.86 3617.42,3056.93 3618.12,3055.62"/>
    </edge>
    <edge id=":3019039006_3" function="internal">
        <lane id=":3019039006_3_0" index="0" disallow="tram rail_urban rail rail_electric ship" speed="11.18" length="0.10" shape="3616.55,3052.71 3616.55,3052.71"/>
        <lane id=":3019039006_3_1" index="1" disallow="tram rail_urban rail rail_electric ship" speed="11.18" length="0.10" shape="3618.12,3055.62 3618.12,3055.62"/>
    </edge>
    <edge id=":3019039006_5" function="internal">
        <lane id=":3019039006_5_0" index="0" disallow="tram rail_urban rail rail_electric ship" speed="11.18" length="2.41" shape="3618.12,3055.62 3619.60,3055.76 3620.35,3056.29"/>
    </edge>
    <edge id=":3019039006_7" function="internal">
        <lane id=":3019039006_7_0" index="0" speed="11.18" length="2.41" shape="3620.35,3056.29 3620.38,3057.21 3619.68,3058.53"/>
    </edge>
    <edge id=":3236324362_0" function="internal">
        <lane id=":3236324362_0_0" index="0" disallow="tram rail_urban rail rail_electric ship" speed="8.37" length="7.86" shape="2316.23,3154.97 2315.93,3153.59 2316.52,3152.16 2318.00,3150.69 2320.37,3149.18"/>
    </edge>
    <edge id=":3236324362_1" function="internal">
        <lane id=":3236324362_1_0" index="0" allow="delivery bicycle pedestrian" speed="5.56" length="4.82" shape="2316.23,3154.97 2316.36,3153.49 2316.89,3152.73 2317.81,3152.70 2319.13,3153.39"/>
    </edge>
    <edge id=":3236324362_2" function="internal">
        <lane id=":3236324362_2_0" index="0" disallow="tram rail_urban rail rail_electric ship" speed="11.18" length="9.51" shape="2312.02,3153.74 2320.37,3149.18"/>
    </edge>
    <edge id=":3236324362_3" function="internal">
        <lane id=":3236324362_3_0" index="0" allow="delivery bicycle pedestrian" speed="8.37" length="7.86" shape="2312.02,3153.74 2314.57,3152.56 2316.60,3152.11 2318.12,3152.38 2319.13,3153.39"/>
    </edge>
    <edge id=":3236324365_0" function="internal">
        <lane id=":3236324365_0_0" index="0" allow="delivery bicycle pedestrian" speed="5.56" length="10.34" shape="2323.95,3162.19 2324.96,3164.84 2324.87,3167.17 2323.68,3169.19 2321.41,3170.88"/>
    </edge>
    <edge id=":3236324365_1" function="internal">
        <lane id=":3236324365_1_0" index="0" allow="delivery bicycle pedestrian" speed="5.56" length="4.82" shape="2323.95,3162.19 2323.83,3163.67 2323.30,3164.43 2322.38,3164.47 2321.06,3163.78"/>
    </edge>
    <edge id=":3236324365_2" function="internal">
        <lane id=":3236324365_2_0" index="0" allow="delivery bicycle pedestrian" speed="5.56" length="5.00" shape="2319.83,3167.99 2320.93,3167.17 2321.50,3166.19 2321.55,3165.06 2321.06,3163.78"/>
    </edge>
    <edge id=":3236324365_3" function="internal">
        <lane id=":3236324365_3_0" index="0" allow="delivery bicycle pedestrian" speed="5.56" length="4.82" shape="2319.83,3167.99 2321.31,3168.12 2322.07,3168.65 2322.10,3169.57 2321.41,3170.88"/>
    </edge>
    <edge id=":3236324368_0" function="internal">
        <lane id=":3236324368_0_0" index="0" disallow="tram rail_urban rail rail_electric ship" speed="8.37" length="7.84" shape="2267.97,3181.53 2267.67,3180.15 2268.26,3178.73 2269.73,3177.25 2272.09,3175.74"/>
    </edge>
    <edge id=":3236324368_1" function="internal">
        <lane id=":3236324368_1_0" index="0" allow="delivery bicycle pedestrian" speed="5.56" length="4.82" shape="2267.97,3181.53 2268.10,3180.05 2268.62,3179.29 2269.55,3179.26 2270.87,3179.95"/>
    </edge>
    <edge id=":3236324368_2" function="internal">
        <lane id=":3236324368_2_0" index="0" disallow="tram rail_urban rail rail_electric ship" speed="11.18" length="9.48" shape="2263.75,3180.25 2272.09,3175.74"/>
    </edge>
    <edge id=":3236324368_3" function="internal">
        <lane id=":3236324368_3_0" index="0" allow="delivery bicycle pedestrian" speed="8.37" length="7.83" shape="2263.75,3180.25 2266.31,3179.10 2268.35,3178.67 2269.87,3178.95 2270.87,3179.95"/>
    </edge>
    <edge id=":3236324370_0" function="internal">
        <lane id=":3236324370_0_0" index="0" allow="delivery bicycle pedestrian" speed="5.56" length="4.31" shape="2282.87,3195.42 2282.09,3194.29 2281.26,3193.63 2280.38,3193.45 2279.44,3193.74"/>
    </edge>
    <edge id=":3236324370_1" function="internal">
        <lane id=":3236324370_1_0" index="0" allow="delivery bicycle pedestrian" speed="5.56" length="10.34" shape="2282.87,3195.42 2281.87,3192.77 2281.96,3190.44 2283.15,3188.42 2285.42,3186.73"/>
    </edge>
    <edge id=":3236324370_2" function="internal">
        <lane id=":3236324370_2_0" index="0" allow="delivery bicycle pedestrian" speed="5.56" length="4.82" shape="2282.87,3195.42 2283.00,3193.94 2283.52,3193.18 2284.44,3193.15 2285.76,3193.83"/>
    </edge>
    <edge id=":3236324370_3" function="internal">
        <lane id=":3236324370_3_0" index="0" allow="delivery bicycle pedestrian" speed="5.56" length="5.00" shape="2287.00,3189.63 2285.90,3190.45 2285.32,3191.42 2285.28,3192.55 2285.76,3193.83"/>
    </edge>
    <edge id=":3236324370_4" function="internal">
        <lane id=":3236324370_4_0" index="0" allow="delivery bicycle pedestrian" speed="5.56" length="8.60" shape="2287.00,3189.63 2279.44,3193.74"/>
    </edge>
    <edge id=":3236324370_5" function="internal">
        <lane id=":3236324370_5_0" index="0" allow="delivery bicycle pedestrian" speed="5.56" length="4.82" shape="2287.00,3189.63 2285.51,3189.49 2284.76,3188.97 2284.73,3188.04 2285.42,3186.73"/>
    </edge>
    <edge id=":3236324370_6" function="internal">
        <lane id=":3236324370_6_0" index="0" allow="delivery bicycle pedestrian" speed="5.56" length="8.60" shape="2277.87,3190.84 2285.42,3186.73"/>
    </edge>
    <edge id=":3236324370_7" function="internal">
        <lane id=":3236324370_7_0" index="0" allow="delivery bicycle pedestrian" speed="5.56" length="9.61" shape="2277.87,3190.84 2280.16,3190.04 2282.25,3190.28 2284.11,3191.54 2285.76,3193.83"/>
    </edge>
    <edge id=":3236324370_8" function="internal">
        <lane id=":3236324370_8_0" index="0" allow="delivery bicycle pedestrian" speed="5.56" length="4.82" shape="2277.87,3190.84 2279.35,3190.97 2280.10,3191.50 2280.14,3192.42 2279.44,3193.74"/>
    </edge>
    <edge id=":3236324371_0" function="internal">
        <lane id=":3236324371_0_0" index="0" allow="delivery bicycle pedestrian" speed="5.56" length="7.17" shape="2279.27,3193.83 2277.59,3194.40 2276.06,3194.19 2274.67,3193.21 2273.42,3191.46"/>
    </edge>
    <edge id=":3236324371_1" function="internal">
        <lane id=":3236324371_1_0" index="0" allow="delivery bicycle pedestrian" speed="5.56" length="2.84" shape="2279.27,3193.83 2277.79,3193.70 2277.03,3193.17 2277.01,3192.74"/>
    </edge>
    <edge id=":3236324371_4" function="internal">
        <lane id=":3236324371_4_0" index="0" speed="5.56" length="1.98" shape="2277.01,3192.74 2277.00,3192.25 2277.69,3190.93"/>
    </edge>
    <edge id=":3236324371_2" function="internal">
        <lane id=":3236324371_2_0" index="0" allow="delivery bicycle pedestrian" speed="5.56" length="2.01" shape="2276.31,3189.87 2276.60,3190.41 2276.87,3190.84 2277.21,3191.05 2277.69,3190.93"/>
    </edge>
    <edge id=":3236324371_3" function="internal">
        <lane id=":3236324371_3_0" index="0" allow="delivery bicycle pedestrian" speed="5.56" length="2.25" shape="2276.31,3189.87 2276.19,3191.35 2275.75,3191.97"/>
    </edge>
    <edge id=":3236324371_5" function="internal">
        <lane id=":3236324371_5_0" index="0" speed="5.56" length="2.57" shape="2275.75,3191.97 2275.66,3192.11 2274.74,3192.14 2273.42,3191.46"/>
    </edge>
    <edge id=":3236324375_0" function="internal">
        <lane id=":3236324375_0_0" index="0" allow="delivery bicycle pedestrian" speed="5.56" length="10.34" shape="2295.54,3211.65 2296.54,3214.30 2296.45,3216.64 2295.27,3218.65 2293.00,3220.34"/>
    </edge>
    <edge id=":3236324375_1" function="internal">
        <lane id=":3236324375_1_0" index="0" allow="delivery bicycle pedestrian" speed="5.56" length="4.82" shape="2295.54,3211.65 2295.41,3213.13 2294.89,3213.89 2293.97,3213.93 2292.65,3213.24"/>
    </edge>
    <edge id=":3236324375_2" function="internal">
        <lane id=":3236324375_2_0" index="0" allow="delivery bicycle pedestrian" speed="5.56" length="5.00" shape="2291.42,3217.44 2292.52,3216.62 2293.09,3215.65 2293.13,3214.52 2292.65,3213.24"/>
    </edge>
    <edge id=":3236324375_3" function="internal">
        <lane id=":3236324375_3_0" index="0" allow="delivery bicycle pedestrian" speed="5.56" length="4.82" shape="2291.42,3217.44 2292.90,3217.58 2293.65,3218.10 2293.69,3219.03 2293.00,3220.34"/>
    </edge>
    <edge id=":3236324376_0" function="internal">
        <lane id=":3236324376_0_0" index="0" allow="delivery bicycle pedestrian" speed="5.56" length="4.82" shape="2258.89,3238.92 2257.41,3238.78 2256.65,3238.26 2256.62,3237.33 2257.31,3236.02"/>
    </edge>
    <edge id=":3564892565_0" function="internal">
        <lane id=":3564892565_0_0" index="0" disallow="tram rail_urban rail rail_electric ship" speed="11.18" length="0.34" shape="2319.23,3001.22 2319.18,3000.85"/>
        <lane id=":3564892565_0_1" index="1" disallow="tram rail_urban rail rail_electric ship" speed="11.18" length="0.34" shape="2322.50,3000.74 2322.45,3000.44"/>
    </edge>
    <edge id=":3564892566_0" function="internal">
        <lane id=":3564892566_0_0" index="0" disallow="tram rail_urban rail rail_electric ship" speed="11.18" length="1.56" shape="2321.36,3013.42 2321.12,3012.86 2321.01,3012.46 2320.96,3012.05 2320.88,3011.45"/>
        <lane id=":3564892566_0_1" index="1" disallow="tram rail_urban rail rail_electric ship" speed="11.18" length="1.56" shape="2324.33,3011.97 2324.21,3011.68 2324.17,3011.47 2324.17,3011.24 2324.13,3010.92"/>
    </edge>
    <edge id=":3564892567_0" function="internal">
        <lane id=":3564892567_0_0" index="0" disallow="tram rail_urban rail rail_electric ship" speed="11.18" length="0.31" shape="2332.77,3036.87 2332.63,3036.55"/>
        <lane id=":3564892567_0_1" index="1" disallow="tram rail_urban rail rail_electric ship" speed="11.18" length="0.31" shape="2335.71,3035.36 2335.60,3035.10"/>
    </edge>
    <edge id=":3564892568_0" function="internal">
        <lane id=":3564892568_0_0" index="0" disallow="tram rail_urban rail rail_electric ship" speed="11.18" length="2.79" shape="2330.15,3041.42 2328.79,3038.98"/>
    </edge>
    <edge id=":3564892570_0" function="internal">
        <lane id=":3564892570_0_0" index="0" allow="bicycle" speed="5.56" length="0.10" width="1.00" shape="2380.69,3106.82 2380.69,3106.83"/>
    </edge>
    <edge id=":3857400402_0" function="internal">
        <lane id=":3857400402_0_0" index="0" disallow="tram rail_urban rail rail_electric ship" speed="11.18" length="0.28" shape="3656.90,3221.65 3656.65,3221.79"/>
    </edge>
    <edge id=":3859048179_0" function="internal">
        <lane id=":3859048179_0_0" index="0" disallow="tram rail_urban rail rail_electric ship" speed="11.18" length="0.10" shape="3475.42,3139.99 3475.42,3139.99"/>
        <lane id=":3859048179_0_1" index="1" disallow="tram rail_urban rail rail_electric ship" speed="11.18" length="0.10" shape="3473.85,3137.08 3473.85,3137.08"/>
    </edge>
    <edge id=":3859048179_2" function="internal">
        <lane id=":3859048179_2_0" index="0" disallow="tram rail_urban rail rail_electric ship" speed="11.18" length="2.41" shape="3473.85,3137.08 3472.37,3136.94 3471.62,3136.41"/>
    </edge>
    <edge id=":3859048179_6" function="internal">
        <lane id=":3859048179_6_0" index="0" speed="11.18" length="2.41" shape="3471.62,3136.41 3471.59,3135.49 3472.29,3134.18"/>
    </edge>
    <edge id=":3859048179_3" function="internal">
        <lane id=":3859048179_3_0" index="0" disallow="tram rail_urban rail rail_electric ship" speed="11.18" length="0.10" shape="3470.72,3131.27 3470.72,3131.27"/>
        <lane id=":3859048179_3_1" index="1" disallow="tram rail_urban rail rail_electric ship" speed="11.18" length="0.10" shape="3472.29,3134.18 3472.29,3134.18"/>
    </edge>
    <edge id=":3859048179_5" function="internal">
        <lane id=":3859048179_5_0" index="0" disallow="tram rail_urban rail rail_electric ship" speed="11.18" length="2.41" shape="3472.29,3134.18 3473.77,3134.32 3474.52,3134.85"/>
    </edge>
    <edge id=":3859048179_7" function="internal">
        <lane id=":3859048179_7_0" index="0" speed="11.18" length="2.41" shape="3474.52,3134.85 3474.55,3135.77 3473.85,3137.08"/>
    </edge>
    <edge id=":387180916_0" function="internal">
        <lane id=":387180916_0_0" index="0" disallow="tram rail_urban rail rail_electric ship" speed="11.18" length="12.04" shape="2344.86,3053.87 2343.00,3050.96 2341.07,3049.39 2339.08,3047.86 2337.05,3045.03"/>
        <lane id=":387180916_0_1" index="1" disallow="tram rail_urban rail rail_electric ship" speed="11.18" length="12.04" shape="2347.87,3052.52 2345.99,3049.55 2344.04,3047.95 2342.03,3046.38 2339.97,3043.50"/>
    </edge>
    <edge id=":387180916_2" function="internal">
        <lane id=":387180916_2_0" index="0" disallow="tram rail_urban rail rail_electric ship" speed="8.37" length="12.70" shape="2350.27,3050.80 2347.65,3049.80 2344.75,3049.62 2341.57,3050.25 2338.11,3051.69"/>
    </edge>
    <edge id=":387180916_3" function="internal">
        <lane id=":387180916_3_0" index="0" disallow="tram rail_urban rail rail_electric ship" speed="8.37" length="12.97" shape="2350.27,3050.80 2347.23,3049.40 2344.58,3048.32 2342.20,3046.65 2339.97,3043.50"/>
    </edge>
    <edge id=":387180916_4" function="internal">
        <lane id=":387180916_4_0" index="0" disallow="tram rail_urban rail rail_electric ship" speed="11.18" length="10.74" shape="2346.73,3045.32 2343.96,3046.52 2341.80,3047.01 2339.57,3047.52 2336.60,3048.76"/>
    </edge>
    <edge id=":387180916_5" function="internal">
        <lane id=":387180916_5_0" index="0" disallow="tram rail_urban rail rail_electric ship" speed="11.18" length="2.65" shape="2346.73,3045.32 2344.61,3046.13 2344.23,3046.12"/>
    </edge>
    <edge id=":387180916_6" function="internal">
        <lane id=":387180916_6_0" index="0" speed="11.18" length="5.36" shape="2344.23,3046.12 2342.78,3046.09 2341.23,3045.21 2339.97,3043.50"/>
    </edge>
    <edge id=":3874681615_0" function="internal">
        <lane id=":3874681615_0_0" index="0" disallow="tram rail_urban rail rail_electric ship" speed="11.18" length="0.30" shape="2085.36,4157.98 2085.62,4157.84"/>
    </edge>
    <edge id=":4015418428_0" function="internal">
        <lane id=":4015418428_0_0" index="0" disallow="tram rail_urban rail rail_electric ship" speed="11.18" length="0.10" shape="2252.30,2883.76 2252.30,2883.76"/>
    </edge>
    <edge id=":4205565514_0" function="internal">
        <lane id=":4205565514_0_0" index="0" disallow="tram rail_urban rail rail_electric ship" speed="11.18" length="3.55" shape="2637.54,3013.42 2638.22,3014.13 2638.98,3014.35 2639.74,3014.56 2640.42,3015.28"/>
        <lane id=":4205565514_0_1" index="1" disallow="tram rail_urban rail rail_electric ship" speed="11.18" length="3.55" shape="2637.54,3013.42 2637.77,3014.37 2637.53,3015.13 2637.29,3015.88 2637.51,3016.84"/>
        <lane id=":4205565514_0_2" index="2" disallow="tram rail_urban rail rail_electric ship" speed="11.18" length="3.55" shape="2634.64,3014.98 2634.86,3015.93 2634.62,3016.69 2634.38,3017.44 2634.60,3018.40"/>
        <lane id=":4205565514_0_3" index="3" disallow="tram rail_urban rail rail_electric ship" speed="11.18" length="3.55" shape="2631.73,3016.54 2631.95,3017.49 2631.71,3018.25 2631.47,3019.00 2631.69,3019.96"/>
    </edge>
    <edge id=":4205565518_0" function="internal">
        <lane id=":4205565518_0_0" index="0" disallow="tram rail_urban rail rail_electric ship" speed="11.18" length="3.55" shape="2707.11,3142.66 2707.79,3143.37 2708.55,3143.59 2709.31,3143.80 2709.99,3144.51"/>
        <lane id=":4205565518_0_1" index="1" disallow="tram rail_urban rail rail_electric ship" speed="11.18" length="3.55" shape="2707.11,3142.66 2707.34,3143.62 2707.10,3144.37 2706.86,3145.13 2707.09,3146.09"/>
        <lane id=":4205565518_0_2" index="2" disallow="tram rail_urban rail rail_electric ship" speed="11.18" length="3.55" shape="2704.21,3144.23 2704.43,3145.19 2704.20,3145.94 2703.96,3146.70 2704.19,3147.66"/>
        <lane id=":4205565518_0_3" index="3" disallow="tram rail_urban rail rail_electric ship" speed="11.18" length="3.55" shape="2701.31,3145.80 2701.53,3146.76 2701.30,3147.52 2701.06,3148.27 2701.29,3149.23"/>
    </edge>
    <edge id=":4205565523_0" function="internal">
        <lane id=":4205565523_0_0" index="0" disallow="tram rail_urban rail rail_electric ship" speed="11.18" length="3.55" shape="2778.37,3274.85 2779.05,3275.56 2779.81,3275.77 2780.57,3275.98 2781.26,3276.69"/>
        <lane id=":4205565523_0_1" index="1" disallow="tram rail_urban rail rail_electric ship" speed="11.18" length="3.55" shape="2778.37,3274.85 2778.60,3275.81 2778.37,3276.57 2778.13,3277.32 2778.36,3278.28"/>
        <lane id=":4205565523_0_2" index="2" disallow="tram rail_urban rail rail_electric ship" speed="11.18" length="3.55" shape="2775.47,3276.44 2775.71,3277.40 2775.47,3278.16 2775.24,3278.91 2775.47,3279.87"/>
        <lane id=":4205565523_0_3" index="3" disallow="tram rail_urban rail rail_electric ship" speed="11.18" length="3.55" shape="2772.58,3278.03 2772.81,3278.99 2772.58,3279.74 2772.35,3280.50 2772.58,3281.46"/>
    </edge>
    <edge id=":4205565533_0" function="internal">
        <lane id=":4205565533_0_0" index="0" disallow="tram rail_urban rail rail_electric ship" speed="11.18" length="3.55" shape="2854.81,3416.43 2855.49,3417.15 2856.25,3417.36 2857.01,3417.58 2857.69,3418.29"/>
        <lane id=":4205565533_0_1" index="1" disallow="tram rail_urban rail rail_electric ship" speed="11.18" length="3.55" shape="2854.81,3416.43 2855.03,3417.39 2854.80,3418.15 2854.56,3418.90 2854.79,3419.86"/>
        <lane id=":4205565533_0_2" index="2" disallow="tram rail_urban rail rail_electric ship" speed="11.18" length="3.55" shape="2851.90,3418.01 2852.13,3418.97 2851.89,3419.72 2851.66,3420.47 2851.88,3421.43"/>
        <lane id=":4205565533_0_3" index="3" disallow="tram rail_urban rail rail_electric ship" speed="11.18" length="3.55" shape="2849.00,3419.58 2849.23,3420.54 2848.99,3421.29 2848.76,3422.04 2848.98,3423.00"/>
    </edge>
    <edge id=":4205565537_0" function="internal">
        <lane id=":4205565537_0_0" index="0" disallow="tram rail_urban rail rail_electric ship" speed="11.18" length="0.10" shape="2938.93,3575.80 2938.93,3575.80"/>
        <lane id=":4205565537_0_1" index="1" disallow="tram rail_urban rail rail_electric ship" speed="11.18" length="0.10" shape="2936.02,3577.36 2936.02,3577.36"/>
    </edge>
    <edge id=":42427371_0" function="internal">
        <lane id=":42427371_0_0" index="0" disallow="tram rail_urban rail rail_electric ship" speed="11.18" length="5.00" shape="3244.07,2985.99 3244.88,2987.10 3245.85,2987.67 3246.98,2987.73 3248.27,2987.25"/>
    </edge>
    <edge id=":42427371_1" function="internal">
        <lane id=":42427371_1_0" index="0" disallow="tram rail_urban rail rail_electric ship" speed="11.18" length="6.21" shape="3244.07,2985.99 3247.01,2991.46"/>
        <lane id=":42427371_1_1" index="1" disallow="tram rail_urban rail rail_electric ship" speed="11.18" length="6.21" shape="3241.16,2987.56 3244.10,2993.02"/>
    </edge>
    <edge id=":42427371_3" function="internal">
        <lane id=":42427371_3_0" index="0" disallow="tram rail_urban rail rail_electric ship" speed="11.18" length="9.50" shape="3239.90,2991.76 3248.27,2987.25"/>
    </edge>
    <edge id=":42427371_4" function="internal">
        <lane id=":42427371_4_0" index="0" disallow="tram rail_urban rail rail_electric ship" speed="11.18" length="5.00" shape="3239.90,2991.76 3241.19,2991.29 3242.32,2991.34 3243.29,2991.92 3244.10,2993.02"/>
    </edge>
    <edge id=":42427374_0" function="internal">
        <lane id=":42427374_0_0" index="0" disallow="tram rail_urban rail rail_electric ship" speed="11.18" length="6.21" shape="3002.64,3123.16 2999.69,3117.69"/>
        <lane id=":42427374_0_1" index="1" disallow="tram rail_urban rail rail_electric ship" speed="11.18" length="6.21" shape="3005.54,3121.58 3002.59,3116.13"/>
    </edge>
    <edge id=":42427374_2" function="internal">
        <lane id=":42427374_2_0" index="0" disallow="tram rail_urban rail rail_electric ship" speed="11.18" length="5.00" shape="3005.54,3121.58 3005.07,3120.30 3005.12,3119.17 3005.69,3118.20 3006.80,3117.38"/>
    </edge>
    <edge id=":42427374_3" function="internal">
        <lane id=":42427374_3_0" index="0" disallow="tram rail_urban rail rail_electric ship" speed="11.18" length="5.00" shape="2998.43,3121.89 2999.53,3121.08 3000.11,3120.11 3000.16,3118.98 2999.69,3117.69"/>
    </edge>
    <edge id=":42427374_4" function="internal">